data_image0
_chemical_formula_structural       KCdErClCdCl7
_chemical_formula_sum              "K1 Cd2 Er1 Cl8"
_cell_length_a       6.24154672891646
_cell_length_b       6.522179679563891
_cell_length_c       8.355779647827148
_cell_angle_alpha    89.96780499450834
_cell_angle_beta     90.0510991490504
_cell_angle_gamma    90.91634066627

_space_group_name_H-M_alt    "P 1"
_space_group_IT_number       1

loop_
  _space_group_symop_operation_xyz
  'x, y, z'

loop_
  _atom_site_type_symbol
  _atom_site_label
  _atom_site_symmetry_multiplicity
  _atom_site_fract_x
  _atom_site_fract_y
  _atom_site_fract_z
  _atom_site_occupancy
  K   K1        1.0  0.33277490813180666  0.9660849567987753  0.16449493136920665  1.0000
  Cd  Cd1       1.0  0.8323138357323657  0.46634784381337524  0.9189791682910932  1.0000
  Er  Er1       1.0  0.3325345809698607  0.9658869500868984  0.664414405546696  1.0000
  Cl  Cl1       1.0  0.5993857380096768  0.6392871730895602  0.6647486084923023  1.0000
  Cd  Cd2       1.0  0.8328791855205218  0.4657979602811499  0.40973401020127664  1.0000
  Cl  Cl2       1.0  0.5747009508062594  0.13877049081027992  0.44701915939886594  1.0000
  Cl  Cl3       1.0  0.5745102770112498  0.13865660172048602  0.882161319585694  1.0000
  Cl  Cl4       1.0  0.05876197650843912  0.338071018690831  0.16417440749721748  1.0000
  Cl  Cl5       1.0  0.6067793361676644  0.5944989325960852  0.1648439321600752  1.0000
  Cl  Cl6       1.0  0.09061928100741873  0.7938011288442319  0.882248103219148  1.0000
  Cl  Cl7       1.0  0.06605046908328385  0.2929052118895723  0.6643576620180999  1.0000
  Cl  Cl8       1.0  0.0905569123060838  0.7937057620082871  0.4469463526978869  1.0000
