data_image0
_chemical_formula_structural       SmNaTeNaNd3Te5
_chemical_formula_sum              "Sm1 Na2 Te6 Nd3"
_cell_length_a       7.781396986321805
_cell_length_b       7.780908540384802
_cell_length_c       7.869810104370117
_cell_angle_alpha    80.48130097196385
_cell_angle_beta     70.74807562418712
_cell_angle_gamma    59.97725250876933

_space_group_name_H-M_alt    "P 1"
_space_group_IT_number       1

loop_
  _space_group_symop_operation_xyz
  'x, y, z'

loop_
  _atom_site_type_symbol
  _atom_site_label
  _atom_site_symmetry_multiplicity
  _atom_site_fract_x
  _atom_site_fract_y
  _atom_site_fract_z
  _atom_site_occupancy
  Sm  Sm1       1.0  0.6605747933576613  0.2973722811205729  0.2273396698905099  1.0000
  Na  Na1       1.0  0.16104614750262763  0.29635384666295134  0.7273677588297147  1.0000
  Te  Te1       1.0  0.744124293065175  0.6269699332407807  0.9776456951946283  1.0000
  Na  Na2       1.0  0.49354654640476436  0.6317080252503977  0.7275045511582461  1.0000
  Nd  Nd1       1.0  0.9951769119646755  0.6280590884583068  0.22764383207736485  1.0000
  Nd  Nd2       1.0  0.8283008343318338  0.9616122240479202  0.7275754206659926  1.0000
  Nd  Nd3       1.0  0.32733154388848384  0.963827549922267  0.22725394301548002  1.0000
  Te  Te2       1.0  0.9079061157460847  0.2970798610798129  0.4773677878296146  1.0000
  Te  Te3       1.0  0.24705597854146838  0.627068757353621  0.4773236812325277  1.0000
  Te  Te4       1.0  0.4134927390746542  0.29677644342948745  0.9774895310332911  1.0000
  Te  Te5       1.0  0.07439152105051434  0.9659851787951552  0.9795656796135205  1.0000
  Te  Te6       1.0  0.5779405226991474  0.9659319526804574  0.4753355087544137  1.0000
