data_image0
_chemical_formula_structural       AlBeHBeH3KH4
_chemical_formula_sum              "Al1 Be2 H8 K1"
_cell_length_a       4.374461517679247
_cell_length_b       4.3712174495179585
_cell_length_c       7.983895301818848
_cell_angle_alpha    74.08574984439461
_cell_angle_beta     74.05858641146506
_cell_angle_gamma    60.05742384155858

_space_group_name_H-M_alt    "P 1"
_space_group_IT_number       1

loop_
  _space_group_symop_operation_xyz
  'x, y, z'

loop_
  _atom_site_type_symbol
  _atom_site_label
  _atom_site_symmetry_multiplicity
  _atom_site_fract_x
  _atom_site_fract_y
  _atom_site_fract_z
  _atom_site_occupancy
  Al  Al1       1.0  0.3708039523226309  0.06094076506607578  0.10940620341283494  1.0000
  Be  Be1       1.0  0.10483563716985889  0.7936984305349609  0.9098884460059855  1.0000
  H   H1        1.0  0.12073727778394704  0.44212266827490765  0.9730159635513369  1.0000
  Be  Be2       1.0  0.6363847861514673  0.3283542693323942  0.3092329793303326  1.0000
  H   H2        1.0  0.16560818262918744  0.855651080323957  0.7258387810211023  1.0000
  H   H3        1.0  0.6209173806112134  0.6799218654037822  0.2457007319967369  1.0000
  H   H4        1.0  0.9881792064032987  0.056063261973006706  0.24578368649243604  1.0000
  K   K1        1.0  0.8702147000685004  0.5610737812772816  0.6096811290004467  1.0000
  H   H5        1.0  0.3669906858598005  0.3107440775266087  0.2454772883214313  1.0000
  H   H6        1.0  0.3737526549779373  0.8111463772216647  0.9733989837042698  1.0000
  H   H7        1.0  0.5754609096081338  0.2668838208057235  0.4927399457837236  1.0000
  H   H8        1.0  0.753278195931818  0.06510104339819181  0.9732930662650938  1.0000
