data_image0
_chemical_formula_structural       CaCuCaP2CuCaCuPCuP
_chemical_formula_sum              "Ca3 Cu4 P4"
_cell_length_a       4.178198299428502
_cell_length_b       6.505007282097214
_cell_length_c       7.8037872314453125
_cell_angle_alpha    114.56853322678533
_cell_angle_beta     105.54726191902314
_cell_angle_gamma    90.03222074208644

_space_group_name_H-M_alt    "P 1"
_space_group_IT_number       1

loop_
  _space_group_symop_operation_xyz
  'x, y, z'

loop_
  _atom_site_type_symbol
  _atom_site_label
  _atom_site_symmetry_multiplicity
  _atom_site_fract_x
  _atom_site_fract_y
  _atom_site_fract_z
  _atom_site_occupancy
  Ca  Ca1       1.0  0.5898433918321042  0.5813092590793748  0.4375950989432847  1.0000
  Cu  Cu1       1.0  0.7908523674576879  0.9765338294772189  0.8405089973930284  1.0000
  Ca  Ca2       1.0  0.33293056412479394  0.3248858158340283  0.9240307805416252  1.0000
  P   P1        1.0  0.24582386049975558  0.7378934622149655  0.749768316337835  1.0000
  P   P2        1.0  0.9611272813101508  0.6327180867060102  0.18069143603292126  1.0000
  Cu  Cu2       1.0  0.7909755102238485  0.5897946359944773  0.840038358581161  1.0000
  Ca  Ca3       1.0  0.4609051354350567  0.9531566495313776  0.18056738354629304  1.0000
  Cu  Cu3       1.0  0.13172711530066436  0.31751939571403465  0.5219272375004754  1.0000
  P   P3        1.0  0.9609988921041768  0.27339228997199577  0.18118715269944935  1.0000
  Cu  Cu4       1.0  0.1319700331388661  0.9299203753948999  0.5216590757691267  1.0000
  P   P4        1.0  0.6762895584968064  0.16832426274871085  0.6117840409229099  1.0000
