data_image0
_chemical_formula_structural       LaNdLaTe2LiTeNd2Te3
_chemical_formula_sum              "La2 Nd3 Te6 Li1"
_cell_length_a       4.491759054963593
_cell_length_b       9.021589540893563
_cell_length_c       10.101095199584961
_cell_angle_alpha    104.056497732481
_cell_angle_beta     102.83166690632315
_cell_angle_gamma    90.00571244184354

_space_group_name_H-M_alt    "P 1"
_space_group_IT_number       1

loop_
  _space_group_symop_operation_xyz
  'x, y, z'

loop_
  _atom_site_type_symbol
  _atom_site_label
  _atom_site_symmetry_multiplicity
  _atom_site_fract_x
  _atom_site_fract_y
  _atom_site_fract_z
  _atom_site_occupancy
  La  La1       1.0  0.5845644469339185  0.09016051841025964  0.36987134826551327  1.0000
  Nd  Nd1       1.0  0.9185507287198362  0.2571983337170875  0.037830218551048594  1.0000
  La  La2       1.0  0.25261405159191874  0.424639761978539  0.7058243154378149  1.0000
  Te  Te1       1.0  0.0792843621041216  0.8316602115006085  0.3587983852003639  1.0000
  Te  Te2       1.0  0.7532970915933482  0.1728536483544998  0.7074370382677374  1.0000
  Li  Li1       1.0  0.9185004841503331  0.7570738793413193  0.03776752259909046  1.0000
  Te  Te3       1.0  0.42079943508038015  0.5177539583624812  0.04271066906977897  1.0000
  Nd  Nd2       1.0  0.5880627034732369  0.5880536435765755  0.3764938414759766  1.0000
  Nd  Nd3       1.0  0.24872672574378368  0.9261696339451495  0.6990500687668804  1.0000
  Te  Te4       1.0  0.41591152474842424  0.9969698789743141  0.03312376842047839  1.0000
  Te  Te5       1.0  0.0839263265214477  0.3414048849114271  0.3684458735034574  1.0000
  Te  Te6       1.0  0.7579483386968286  0.6829580068190344  0.7171380523997842  1.0000
