data_image0
_chemical_formula_structural       Bi2ClBiCl2SBiClSClS
_chemical_formula_sum              "Bi4 Cl5 S3"
_cell_length_a       6.740602616279013
_cell_length_b       8.27608032960435
_cell_length_c       8.275042533874512
_cell_angle_alpha    120.68554951637103
_cell_angle_beta     89.62223157658329
_cell_angle_gamma    90.43388347727023

_space_group_name_H-M_alt    "P 1"
_space_group_IT_number       1

loop_
  _space_group_symop_operation_xyz
  'x, y, z'

loop_
  _atom_site_type_symbol
  _atom_site_label
  _atom_site_symmetry_multiplicity
  _atom_site_fract_x
  _atom_site_fract_y
  _atom_site_fract_z
  _atom_site_occupancy
  Bi  Bi1       1.0  0.2696916756950782  0.63116085496546  0.745122731047296  1.0000
  Bi  Bi2       1.0  0.25495919596210237  0.138536974244796  0.71978270950882  1.0000
  Cl  Cl1       1.0  0.03167333406182521  0.9652824400201914  0.8929231765407752  1.0000
  Bi  Bi3       1.0  0.2632134855598383  0.6421930188461773  0.21537426043763994  1.0000
  Cl  Cl2       1.0  0.49954456032306477  0.8004414445383163  0.562423110812826  1.0000
  Cl  Cl3       1.0  0.03848048366738899  0.4634664061645375  0.39457944033518466  1.0000
  S   S1        1.0  0.4910894338773515  0.7992044684161443  0.05819382091565566  1.0000
  Bi  Bi4       1.0  0.26998731481336824  0.1129529256905856  0.22696652980085372  1.0000
  Cl  Cl4       1.0  0.5124868757806207  0.29788303307959013  0.5599743128789992  1.0000
  S   S2        1.0  0.047606040051137846  0.4643971025594652  0.8891205784826226  1.0000
  Cl  Cl5       1.0  0.5004045371896169  0.29509076545351365  0.056798022988643705  1.0000
  S   S3        1.0  0.04688363535239039  0.9689983127560915  0.39461252119040613  1.0000
