data_image0
_chemical_formula_structural       Na3CdAuNa2Au2CdAu2
_chemical_formula_sum              "Na5 Cd2 Au5"
_cell_length_a       4.872232983528607
_cell_length_b       4.872581968968243
_cell_length_c       13.842822074890137
_cell_angle_alpha    90.03603858240388
_cell_angle_beta     89.93715793260812
_cell_angle_gamma    119.95526567879597

_space_group_name_H-M_alt    "P 1"
_space_group_IT_number       1

loop_
  _space_group_symop_operation_xyz
  'x, y, z'

loop_
  _atom_site_type_symbol
  _atom_site_label
  _atom_site_symmetry_multiplicity
  _atom_site_fract_x
  _atom_site_fract_y
  _atom_site_fract_z
  _atom_site_occupancy
  Na  Na1       1.0  0.9345402123429245  0.9581338761966953  0.5503634808731835  1.0000
  Na  Na2       1.0  0.2675771422795766  0.6259574291805925  0.12449356185583292  1.0000
  Na  Na3       1.0  0.9343665842861374  0.9594045881425375  0.29308229656045987  1.0000
  Cd  Cd1       1.0  0.2680700416737183  0.625388800188017  0.4393640456117612  1.0000
  Au  Au1       1.0  0.6009252674545095  0.29311764207563645  0.2092230023402838  1.0000
  Na  Na4       1.0  0.26772868691058127  0.6261922716730459  0.8695849178029111  1.0000
  Na  Na5       1.0  0.6013956060863475  0.2924423209762548  0.7040244936678751  1.0000
  Au  Au2       1.0  0.9339371330960667  0.9595632548110317  0.7687554357217898  1.0000
  Au  Au3       1.0  0.6008116614062383  0.2923257062808554  0.4163003861606834  1.0000
  Cd  Cd2       1.0  0.6011119492224677  0.2928240599431896  0.004768252285272116  1.0000
  Au  Au4       1.0  0.9342860568201518  0.9590523232194949  0.9791132214199016  1.0000
  Au  Au5       1.0  0.26810178199738904  0.6252289420508998  0.6491671207893628  1.0000
