data_image0
_chemical_formula_structural       LiNaF2NaVF4VF5
_chemical_formula_sum              "Li1 Na2 F11 V2"
_cell_length_a       5.388210030113684
_cell_length_b       5.180033653120873
_cell_length_c       7.984313488006592
_cell_angle_alpha    84.85611849432343
_cell_angle_beta     80.0455479230124
_cell_angle_gamma    85.67702517941242

_space_group_name_H-M_alt    "P 1"
_space_group_IT_number       1

loop_
  _space_group_symop_operation_xyz
  'x, y, z'

loop_
  _atom_site_type_symbol
  _atom_site_label
  _atom_site_symmetry_multiplicity
  _atom_site_fract_x
  _atom_site_fract_y
  _atom_site_fract_z
  _atom_site_occupancy
  Li  Li1       1.0  0.9912016392524683  0.9591549043941613  0.23096214194054232  1.0000
  Na  Na1       1.0  0.29967838585635276  0.12865752034301023  0.8678816555059587  1.0000
  F   F1        1.0  0.5308518412113471  0.4204168615009585  0.9572513109258706  1.0000
  F   F2        1.0  0.93564260042293  0.30407324455328166  0.09976419816245223  1.0000
  Na  Na2       1.0  0.9493446941120915  0.32495415223850116  0.5257869365652678  1.0000
  V   V1        1.0  0.4302598541633266  0.8448791510166751  0.4207901959213874  1.0000
  F   F3        1.0  0.5530785926543262  0.5611978764249879  0.541889131249329  1.0000
  F   F4        1.0  0.00334407319579016  0.46035918638650464  0.780923366400024  1.0000
  F   F5        1.0  0.7238705166164323  0.02987884464749686  0.4221695066013923  1.0000
  F   F6        1.0  0.6334190370191018  0.7178272598164981  0.20359827533598743  1.0000
  V   V2        1.0  0.8093004221094524  0.590517759775293  0.9762573840801796  1.0000
  F   F7        1.0  0.2539931839699002  0.9932712326160752  0.6124212746579225  1.0000
  F   F8        1.0  0.6844673752442247  0.882721900832645  0.8579289909574128  1.0000
  F   F9        1.0  0.06823587444957156  0.7947841284150472  0.015344222510962081  1.0000
  F   F10       1.0  0.15536779254494373  0.666733324984225  0.3846979733710169  1.0000
  F   F11       1.0  0.29107433501920177  0.10921313581229007  0.288871706201179  1.0000
