data_image0
_chemical_formula_structural       I2RbLi2BaRbOBaO11
_chemical_formula_sum              "I2 Rb2 Li2 Ba2 O12"
_cell_length_a       5.951494906439146
_cell_length_b       5.95858489542929
_cell_length_c       8.380696296691895
_cell_angle_alpha    89.98899223976665
_cell_angle_beta     89.98468238919573
_cell_angle_gamma    89.99320646625897

_space_group_name_H-M_alt    "P 1"
_space_group_IT_number       1

loop_
  _space_group_symop_operation_xyz
  'x, y, z'

loop_
  _atom_site_type_symbol
  _atom_site_label
  _atom_site_symmetry_multiplicity
  _atom_site_fract_x
  _atom_site_fract_y
  _atom_site_fract_z
  _atom_site_occupancy
  I   I1        1.0  0.98022580122189  0.6765292285758373  0.2092141808927681  1.0000
  I   I2        1.0  0.4802523548057543  0.17592552344307982  0.7070651054732087  1.0000
  Rb  Rb1       1.0  0.9803075786504001  0.17613609190085747  0.9581825737720134  1.0000
  Li  Li1       1.0  0.4791315495359265  0.1739807730537492  0.18228895982800863  1.0000
  Li  Li2       1.0  0.981144488668655  0.6793138982103148  0.7345470786150273  1.0000
  Ba  Ba1       1.0  0.4803314206759156  0.6760523921923243  0.4579707088100093  1.0000
  Rb  Rb2       1.0  0.48031154235355983  0.6759330635210719  0.9578108187404897  1.0000
  O   O1        1.0  0.9805225734197301  0.6762911082736093  0.9872463943947167  1.0000
  Ba  Ba2       1.0  0.980459154423028  0.17641588988506623  0.45808997727378054  1.0000
  O   O2        1.0  0.9800770879864024  0.6765802507586343  0.43884241583630046  1.0000
  O   O3        1.0  0.4800398049039179  0.17626482213345546  0.9285598994676502  1.0000
  O   O4        1.0  0.7529417279658785  0.4493359321389326  0.21974150831917277  1.0000
  O   O5        1.0  0.20794470671759993  0.9033713342367371  0.21994026044116352  1.0000
  O   O6        1.0  0.25288847075298493  0.4030274156248745  0.6959354283322111  1.0000
  O   O7        1.0  0.7075566654031801  0.402449845589693  0.6960167883556149  1.0000
  O   O8        1.0  0.7079173916882422  0.9491350653462611  0.6962127094819948  1.0000
  O   O9        1.0  0.7525225273844955  0.9034420842584518  0.21980051754827273  1.0000
  O   O10       1.0  0.4803178899457226  0.1758518364823513  0.4772008660689252  1.0000
  O   O11       1.0  0.25262266471697514  0.9488258962936643  0.6964102978777967  1.0000
  O   O12       1.0  0.2078504568385887  0.44903534733951017  0.2197220926053405  1.0000
