data_image0
_chemical_formula_structural       OCrKOErKO2
_chemical_formula_sum              "O4 Cr1 K2 Er1"
_cell_length_a       3.3031467069690423
_cell_length_b       5.648726438771696
_cell_length_c       6.45660924911499
_cell_angle_alpha    107.28090538445295
_cell_angle_beta     89.98546786124798
_cell_angle_gamma    89.99886186313593

_space_group_name_H-M_alt    "P 1"
_space_group_IT_number       1

loop_
  _space_group_symop_operation_xyz
  'x, y, z'

loop_
  _atom_site_type_symbol
  _atom_site_label
  _atom_site_symmetry_multiplicity
  _atom_site_fract_x
  _atom_site_fract_y
  _atom_site_fract_z
  _atom_site_occupancy
  O   O1        1.0  0.035861361865930766  0.112819134376711  0.3690164378459336  1.0000
  Cr  Cr1       1.0  0.035532918392176586  0.8584584005824457  0.5511868595398712  1.0000
  K   K1        1.0  0.03555163820612465  0.35893654892882526  0.0512460987416318  1.0000
  O   O2        1.0  0.535692275107954  0.6501126291346738  0.3744046981763495  1.0000
  Er  Er1       1.0  0.5354964732815829  0.3587644995445436  0.5506731865101748  1.0000
  K   K2        1.0  0.5356826194485135  0.8585608600612432  0.05091953667336409  1.0000
  O   O3        1.0  0.5356290942098227  0.06691710618332518  0.7267928713994402  1.0000
  O   O4        1.0  0.03589581751938468  0.6044638166096294  0.732798875156691  1.0000
