data_image0
_chemical_formula_structural       ZrNbCo4
_chemical_formula_sum              "Zr1 Nb1 Co4"
_cell_length_a       4.849822174914895
_cell_length_b       4.8485540106339595
_cell_length_c       4.849005222320557
_cell_angle_alpha    59.974626926482635
_cell_angle_beta     59.96847345126854
_cell_angle_gamma    59.94311731887821

_space_group_name_H-M_alt    "P 1"
_space_group_IT_number       1

loop_
  _space_group_symop_operation_xyz
  'x, y, z'

loop_
  _atom_site_type_symbol
  _atom_site_label
  _atom_site_symmetry_multiplicity
  _atom_site_fract_x
  _atom_site_fract_y
  _atom_site_fract_z
  _atom_site_occupancy
  Zr  Zr1       1.0  0.9351555116790768  0.20223316437394717  0.7349302761072314  1.0000
  Nb  Nb1       1.0  0.18534159626487248  0.45221954562121075  0.9849989426214635  1.0000
  Co  Co1       1.0  0.5603289601867307  0.8271270393793  0.3600648645739756  1.0000
  Co  Co2       1.0  0.06034452378014104  0.8271599407037683  0.3598895086354869  1.0000
  Co  Co3       1.0  0.5603391519463289  0.827123700721317  0.8599165684288993  1.0000
  Co  Co4       1.0  0.560301422345869  0.32717364918866354  0.35992783364932934  1.0000
