data_image0
_chemical_formula_structural       PdLaP3PdPPd3
_chemical_formula_sum              "Pd5 La1 P4"
_cell_length_a       5.7816621150295475
_cell_length_b       5.811412316908915
_cell_length_c       6.671551704406738
_cell_angle_alpha    102.51922058619331
_cell_angle_beta     118.7676316735876
_cell_angle_gamma    101.14889214867999

_space_group_name_H-M_alt    "P 1"
_space_group_IT_number       1

loop_
  _space_group_symop_operation_xyz
  'x, y, z'

loop_
  _atom_site_type_symbol
  _atom_site_label
  _atom_site_symmetry_multiplicity
  _atom_site_fract_x
  _atom_site_fract_y
  _atom_site_fract_z
  _atom_site_occupancy
  Pd  Pd1       1.0  0.16082902288130752  0.7176185258425275  0.29788115690538486  1.0000
  La  La1       1.0  0.4764514262896052  0.002184981908711637  0.046457331799333014  1.0000
  P   P1        1.0  0.5232914677155504  0.09146647909103046  0.6110709897446017  1.0000
  P   P2        1.0  0.005378455663515035  0.4857010551510287  0.48586601005929536  1.0000
  P   P3        1.0  0.8607958554602555  0.817473172765728  0.9479640719979056  1.0000
  Pd  Pd2       1.0  0.939718543413861  0.4383932647436995  0.7955943340079651  1.0000
  P   P4        1.0  0.3858182428882329  0.48188805657505085  0.14395639284979606  1.0000
  Pd  Pd3       1.0  0.16505467790317344  0.21001906649486346  0.2886246444469434  1.0000
  Pd  Pd4       1.0  0.44446077956229985  0.4498344958905334  0.805006563124073  1.0000
  Pd  Pd5       1.0  0.7588282836797088  0.7847318062110696  0.5435842874968102  1.0000
