data_image0
_chemical_formula_structural       Ba2OSrO2SrOTiO3
_chemical_formula_sum              "Ba2 O7 Sr2 Ti1"
_cell_length_a       3.935961350368387
_cell_length_b       3.939714458564485
_cell_length_c       14.257513999938965
_cell_angle_alpha    97.98973328313012
_cell_angle_beta     97.95648320741098
_cell_angle_gamma    90.01874444710113

_space_group_name_H-M_alt    "P 1"
_space_group_IT_number       1

loop_
  _space_group_symop_operation_xyz
  'x, y, z'

loop_
  _atom_site_type_symbol
  _atom_site_label
  _atom_site_symmetry_multiplicity
  _atom_site_fract_x
  _atom_site_fract_y
  _atom_site_fract_z
  _atom_site_occupancy
  Ba  Ba1       1.0  0.08246558922080992  0.42174437662815956  0.32654184137315356  1.0000
  Ba  Ba2       1.0  0.31699034549447375  0.6561606521861165  0.794248282671673  1.0000
  O   O1        1.0  0.9966853255202365  0.8356851927454472  0.1563397049695996  1.0000
  Sr  Sr1       1.0  0.7053554055028413  0.04539432765166576  0.5705126524741115  1.0000
  O   O2        1.0  0.41773652976645753  0.7582406412719443  0.9993698004068303  1.0000
  O   O3        1.0  0.7608322513900376  0.6011855602487122  0.6836829188984193  1.0000
  Sr  Sr2       1.0  0.9360882032280191  0.27592873607188495  0.03619568031139359  1.0000
  O   O4        1.0  0.1702165466165166  0.5096901667995569  0.49809002892683485  1.0000
  Ti  Ti1       1.0  0.5024943360029165  0.8413535953282699  0.1673550012031292  1.0000
  O   O5        1.0  0.5708144914499234  0.9097541560815997  0.3016099629334873  1.0000
  O   O6        1.0  0.2637282905808027  0.10096751043163686  0.6846850516468879  1.0000
  O   O7        1.0  0.4968864622110564  0.33599537699022936  0.15613716818691026  1.0000
