data_image0
_chemical_formula_structural       TlZnBi
_chemical_formula_sum              "Tl1 Zn1 Bi1"
_cell_length_a       5.006285480000954
_cell_length_b       5.008737458572038
_cell_length_c       5.004568576812744
_cell_angle_alpha    59.95863189230691
_cell_angle_beta     59.983903330826955
_cell_angle_gamma    59.96290032222267

_space_group_name_H-M_alt    "P 1"
_space_group_IT_number       1

loop_
  _space_group_symop_operation_xyz
  'x, y, z'

loop_
  _atom_site_type_symbol
  _atom_site_label
  _atom_site_symmetry_multiplicity
  _atom_site_fract_x
  _atom_site_fract_y
  _atom_site_fract_z
  _atom_site_occupancy
  Tl  Tl1       1.0  0.23089195720934236  0.7882006171826437  0.24487271944163677  1.0000
  Zn  Zn1       1.0  0.4804807002463721  0.038444264570441665  0.4946565043472998  1.0000
  Bi  Bi1       1.0  0.7309328325271823  0.28891250498177085  0.7445861103531132  1.0000
