data_image0
_chemical_formula_structural       TeMnTeKDy2Te3KMnTe
_chemical_formula_sum              "Te6 Mn2 K2 Dy2"
_cell_length_a       4.438737581682519
_cell_length_b       8.264566743429741
_cell_length_c       11.706977844238281
_cell_angle_alpha    90.01599197888294
_cell_angle_beta     89.98326853956672
_cell_angle_gamma    105.55208916558985

_space_group_name_H-M_alt    "P 1"
_space_group_IT_number       1

loop_
  _space_group_symop_operation_xyz
  'x, y, z'

loop_
  _atom_site_type_symbol
  _atom_site_label
  _atom_site_symmetry_multiplicity
  _atom_site_fract_x
  _atom_site_fract_y
  _atom_site_fract_z
  _atom_site_occupancy
  Te  Te1       1.0  0.9945722219866993  0.5078451041421135  0.7141951321719081  1.0000
  Mn  Mn1       1.0  0.15562860721704386  0.8307472472184776  0.4039129910480954  1.0000
  Te  Te2       1.0  0.994585097546811  0.5079836250175449  0.09359326943475485  1.0000
  K   K1        1.0  0.3749261196319521  0.26845660781370917  0.9042420985283659  1.0000
  Dy  Dy1       1.0  0.6229301089717814  0.7645759581576155  0.6539660093665534  1.0000
  Dy  Dy2       1.0  0.6224694258881173  0.7641263600140183  0.15399079049710082  1.0000
  Te  Te3       1.0  0.25090342678764055  0.020993316568036324  0.5939877625749699  1.0000
  Te  Te4       1.0  0.5527056461983937  0.6240891815003848  0.4039108156603556  1.0000
  Te  Te5       1.0  0.6928432593686759  0.9051809315919349  0.9038237333364086  1.0000
  K   K2        1.0  0.8704007871568215  0.26012978001013093  0.40399700384372733  1.0000
  Mn  Mn2       1.0  0.08972484644605297  0.6982415324752201  0.9040164349208726  1.0000
  Te  Te6       1.0  0.25096285354038966  0.021338028699236383  0.21405455427436046  1.0000
