data_image0
_chemical_formula_structural       SrCaAuAg
_chemical_formula_sum              "Sr1 Ca1 Au1 Ag1"
_cell_length_a       5.376107655115498
_cell_length_b       5.3768779605614165
_cell_length_c       5.376197814941406
_cell_angle_alpha    60.00224233208999
_cell_angle_beta     60.00846407625028
_cell_angle_gamma    59.99627861791268

_space_group_name_H-M_alt    "P 1"
_space_group_IT_number       1

loop_
  _space_group_symop_operation_xyz
  'x, y, z'

loop_
  _atom_site_type_symbol
  _atom_site_label
  _atom_site_symmetry_multiplicity
  _atom_site_fract_x
  _atom_site_fract_y
  _atom_site_fract_z
  _atom_site_occupancy
  Sr  Sr1       1.0  0.054656162586822654  0.3397774100052645  0.9192618136222287  1.0000
  Ca  Ca1       1.0  0.5545632241167532  0.8399000774449146  0.41932198271038634  1.0000
  Au  Au1       1.0  0.3045061233278135  0.5901231760728176  0.16937199303473763  1.0000
  Ag  Ag1       1.0  0.8044294707617053  0.08994696949847683  0.6693023453829989  1.0000
