data_image0
_chemical_formula_structural       ErHoErHoEr4TmEr3TmErTm2
_chemical_formula_sum              "Er10 Ho2 Tm4"
_cell_length_a       4.987420562005752
_cell_length_b       6.985118389612488
_cell_length_c       13.981792449951172
_cell_angle_alpha    89.99932631572999
_cell_angle_beta     89.99798759862146
_cell_angle_gamma    89.99352748538297

_space_group_name_H-M_alt    "P 1"
_space_group_IT_number       1

loop_
  _space_group_symop_operation_xyz
  'x, y, z'

loop_
  _atom_site_type_symbol
  _atom_site_label
  _atom_site_symmetry_multiplicity
  _atom_site_fract_x
  _atom_site_fract_y
  _atom_site_fract_z
  _atom_site_occupancy
  Er  Er1       1.0  0.22934880806488753  0.5677090887212343  0.7891983389929468  1.0000
  Ho  Ho1       1.0  0.7293543825132786  0.8182131050723389  0.9144298430697237  1.0000
  Er  Er2       1.0  0.7294477811685872  0.3179888429134396  0.9144369364091114  1.0000
  Ho  Ho2       1.0  0.729314327910988  0.3178462984423391  0.4143559632475024  1.0000
  Er  Er3       1.0  0.7291666270251916  0.3186908668102601  0.16431610276421593  1.0000
  Er  Er4       1.0  0.7292597301296636  0.8183287380452046  0.164525598642672  1.0000
  Er  Er5       1.0  0.7295290222659119  0.8174756759056575  0.6642779707295944  1.0000
  Er  Er6       1.0  0.22921380489798476  0.5682129269994706  0.289238274304943  1.0000
  Tm  Tm1       1.0  0.22932443101852792  0.06829203693757384  0.2891530992217598  1.0000
  Er  Er7       1.0  0.7292951345219748  0.8180162308130687  0.41442534304038364  1.0000
  Er  Er8       1.0  0.2292455878142966  0.06838609260958857  0.03958626461137659  1.0000
  Er  Er9       1.0  0.7294249526205361  0.3175143298362802  0.6644055245180712  1.0000
  Tm  Tm2       1.0  0.22933150845492428  0.5675829047460285  0.5395521524184828  1.0000
  Er  Er10      1.0  0.22949333417558385  0.06766969673006888  0.539597272532198  1.0000
  Tm  Tm3       1.0  0.22936148963241737  0.06762430880901141  0.7891658546230866  1.0000
  Tm  Tm4       1.0  0.2293162338071735  0.5684840677170041  0.039598718239005105  1.0000
