data_image0
_chemical_formula_structural       Tb2DyTbDyTb2DyTbY2Ho
_chemical_formula_sum              "Tb6 Dy3 Y2 Ho1"
_cell_length_a       6.147202262439075
_cell_length_b       6.146599832172208
_cell_length_c       11.797096252441406
_cell_angle_alpha    94.9046657750011
_cell_angle_beta     94.9188242851387
_cell_angle_gamma    119.87402664014323

_space_group_name_H-M_alt    "P 1"
_space_group_IT_number       1

loop_
  _space_group_symop_operation_xyz
  'x, y, z'

loop_
  _atom_site_type_symbol
  _atom_site_label
  _atom_site_symmetry_multiplicity
  _atom_site_fract_x
  _atom_site_fract_y
  _atom_site_fract_z
  _atom_site_occupancy
  Tb  Tb1       1.0  0.6149965519739525  0.9003354313010302  0.555705011092886  1.0000
  Tb  Tb2       1.0  0.9475364693758866  0.5655167111647408  0.5555738208773834  1.0000
  Dy  Dy1       1.0  0.030699260100094303  0.9825731508912877  0.805253446299932  1.0000
  Tb  Tb3       1.0  0.44751840856666547  0.06553064326652423  0.054961495381420415  1.0000
  Dy  Dy2       1.0  0.6971140506410469  0.31602775997715243  0.8052550553489356  1.0000
  Tb  Tb4       1.0  0.2803236843372601  0.23287847614942536  0.5554581879020771  1.0000
  Tb  Tb5       1.0  0.7801257972896517  0.7329035397234204  0.05498950519348451  1.0000
  Dy  Dy3       1.0  0.3639361256777763  0.64920276324111  0.8051257131764388  1.0000
  Tb  Tb6       1.0  0.11278953395473561  0.39820557830870834  0.05467098957190983  1.0000
  Y   Y1        1.0  0.19734726895565852  0.8159518832994146  0.3051649931841183  1.0000
  Y   Y2        1.0  0.5304867622781487  0.48262193891188987  0.30514144927211373  1.0000
  Ho  Ho1       1.0  0.8639029260760289  0.14927491565536852  0.3051582876851155  1.0000
