data_image0
_chemical_formula_structural       AlOsZrPt
_chemical_formula_sum              "Al1 Os1 Zr1 Pt1"
_cell_length_a       4.284914473027154
_cell_length_b       4.288788653165324
_cell_length_c       4.697074890136719
_cell_angle_alpha    117.15589794917977
_cell_angle_beta     117.11038186672486
_cell_angle_gamma    90.00522054277492

_space_group_name_H-M_alt    "P 1"
_space_group_IT_number       1

loop_
  _space_group_symop_operation_xyz
  'x, y, z'

loop_
  _atom_site_type_symbol
  _atom_site_label
  _atom_site_symmetry_multiplicity
  _atom_site_fract_x
  _atom_site_fract_y
  _atom_site_fract_z
  _atom_site_occupancy
  Al  Al1       1.0  0.8473775988119826  0.11464671739090022  0.028991506672166503  1.0000
  Os  Os1       1.0  0.0976241895074895  0.8640284531990979  0.5287716974029392  1.0000
  Zr  Zr1       1.0  0.3471150696023493  0.6142374264926522  0.028458817199653354  1.0000
  Pt  Pt1       1.0  0.5972224474248329  0.36427867442653156  0.5286909945155145  1.0000
