data_image0
_chemical_formula_structural       ErPr3ErScPrYPrScYEr
_chemical_formula_sum              "Er3 Pr5 Sc2 Y2"
_cell_length_a       3.58444051585924
_cell_length_b       8.93713753134986
_cell_length_c       12.424579620361328
_cell_angle_alpha    104.23532656799584
_cell_angle_beta     89.99080907041562
_cell_angle_gamma    90.01656571431066

_space_group_name_H-M_alt    "P 1"
_space_group_IT_number       1

loop_
  _space_group_symop_operation_xyz
  'x, y, z'

loop_
  _atom_site_type_symbol
  _atom_site_label
  _atom_site_symmetry_multiplicity
  _atom_site_fract_x
  _atom_site_fract_y
  _atom_site_fract_z
  _atom_site_occupancy
  Er  Er1       1.0  0.1458338042968779  0.7100437874328293  0.5367379780551688  1.0000
  Pr  Pr1       1.0  0.1459727425981408  0.6812039612926614  0.026124765705033765  1.0000
  Pr  Pr2       1.0  0.6459680202111965  0.033334653691683126  0.16015146632205382  1.0000
  Pr  Pr3       1.0  0.1458894025140776  0.03398207559670874  0.4227047863890617  1.0000
  Er  Er2       1.0  0.6456873418509659  0.04056103204560386  0.6802436714025517  1.0000
  Sc  Sc1       1.0  0.1457800867392103  0.05012606464712783  0.9189265968936956  1.0000
  Pr  Pr4       1.0  0.6458312261933639  0.3729515970600832  0.39648228888392417  1.0000
  Y   Y1        1.0  0.14584603887237327  0.36928591162560875  0.6547808649726774  1.0000
  Pr  Pr5       1.0  0.6460725667271067  0.7165125613065815  0.7858701351539229  1.0000
  Sc  Sc2       1.0  0.6460450875778416  0.3514332476595837  0.8940057754593274  1.0000
  Y   Y2        1.0  0.6459260596480572  0.6919785145473706  0.2808902265697748  1.0000
  Er  Er3       1.0  0.14596085370180809  0.36366480639798615  0.13504056667744785  1.0000
