data_image0
_chemical_formula_structural       AgCd2AgCdAgPdCdPdAg2CdAg
_chemical_formula_sum              "Ag6 Cd5 Pd2"
_cell_length_a       5.15886466857577
_cell_length_b       7.761643588481704
_cell_length_c       6.829250335693359
_cell_angle_alpha    64.30059427360848
_cell_angle_beta     83.62589987034592
_cell_angle_gamma    81.9963462112313

_space_group_name_H-M_alt    "P 1"
_space_group_IT_number       1

loop_
  _space_group_symop_operation_xyz
  'x, y, z'

loop_
  _atom_site_type_symbol
  _atom_site_label
  _atom_site_symmetry_multiplicity
  _atom_site_fract_x
  _atom_site_fract_y
  _atom_site_fract_z
  _atom_site_occupancy
  Ag  Ag1       1.0  0.34879997446822814  0.46280100956024833  0.63534063158077  1.0000
  Cd  Cd1       1.0  0.5753403900384593  0.5359172823043926  0.190081327560776  1.0000
  Cd  Cd2       1.0  0.9476999645319748  0.013086761751249305  0.39834034400049706  1.0000
  Ag  Ag2       1.0  0.19000560010597156  0.08630119196373492  0.9357090596151464  1.0000
  Cd  Cd3       1.0  0.7162537574301133  0.9470764999600251  0.8688345554706806  1.0000
  Ag  Ag3       1.0  0.48995143126270474  0.860610902069984  0.3261542923840235  1.0000
  Pd  Pd1       1.0  0.6613567472477918  0.2446936819396753  0.023092981665135747  1.0000
  Cd  Cd4       1.0  0.7993275519977379  0.6144566538462893  0.7122406361727514  1.0000
  Pd  Pd2       1.0  0.42186608941149484  0.15875236715670354  0.4815354349529673  1.0000
  Ag  Ag4       1.0  0.03823788182279171  0.7020667792579233  0.2476097937461785  1.0000
  Ag  Ag5       1.0  0.8895534279302474  0.31385785393430055  0.560333608979885  1.0000
  Cd  Cd5       1.0  0.13567012583723367  0.382649272173956  0.09704847710703003  1.0000
  Ag  Ag6       1.0  0.26284071861137803  0.7807606452565727  0.7839312553827019  1.0000
