data_image0
_chemical_formula_structural       LiKLaLiKNbLiO5SiO3
_chemical_formula_sum              "Li3 K2 La1 Nb1 O8 Si1"
_cell_length_a       6.742445996179388
_cell_length_b       6.381569348171193
_cell_length_c       6.7029805183410645
_cell_angle_alpha    108.39797089125828
_cell_angle_beta     113.47782722763974
_cell_angle_gamma    102.18277305716855

_space_group_name_H-M_alt    "P 1"
_space_group_IT_number       1

loop_
  _space_group_symop_operation_xyz
  'x, y, z'

loop_
  _atom_site_type_symbol
  _atom_site_label
  _atom_site_symmetry_multiplicity
  _atom_site_fract_x
  _atom_site_fract_y
  _atom_site_fract_z
  _atom_site_occupancy
  Li  Li1       1.0  0.8993687623207244  0.9262910487279187  0.4146796764453417  1.0000
  K   K1        1.0  0.4019076217519902  0.9675454488660515  0.3960981069231634  1.0000
  La  La1       1.0  0.34272804901439996  0.38363426858076566  0.8391928677218903  1.0000
  Li  Li2       1.0  0.8937205676617826  0.28616717438801675  0.8556705112940559  1.0000
  K   K2        1.0  0.8909883508369618  0.743279636693667  0.8190444112629717  1.0000
  Nb  Nb1       1.0  0.7586675892719288  0.20914679847713488  0.2326285852154022  1.0000
  Li  Li3       1.0  0.40204447544835237  0.8803737172278978  0.7829538586452391  1.0000
  O   O1        1.0  0.9117372032766219  0.29378643558893075  0.5787857760950064  1.0000
  O   O2        1.0  0.6496211884751684  0.2251024984834795  0.9116672276122907  1.0000
  O   O3        1.0  0.5054607399494332  0.33940741486787607  0.2616622448392771  1.0000
  O   O4        1.0  0.6185541151348957  0.8677459362180155  0.11162447984274508  1.0000
  O   O5        1.0  0.18955610642504955  0.5199075931192768  0.10509124415405831  1.0000
  Si  Si1       1.0  0.2964590198285227  0.41185763492304217  0.30349299303552246  1.0000
  O   O6        1.0  0.4146881400533484  0.5961742994519386  0.5887168041926586  1.0000
  O   O7        1.0  0.07894259738071373  0.1762043837969184  0.23910988853726872  1.0000
  O   O8        1.0  0.15355376891963748  0.9719105361628271  0.6744564767911606  1.0000
