data_image0
_chemical_formula_structural       HoGaMnGa2PtHoGaPt2
_chemical_formula_sum              "Ho2 Ga4 Mn1 Pt3"
_cell_length_a       4.011013099886977
_cell_length_b       4.011775979904347
_cell_length_c       11.415200233459473
_cell_angle_alpha    89.99606831579916
_cell_angle_beta     89.9893815608103
_cell_angle_gamma    89.9978714854996

_space_group_name_H-M_alt    "P 1"
_space_group_IT_number       1

loop_
  _space_group_symop_operation_xyz
  'x, y, z'

loop_
  _atom_site_type_symbol
  _atom_site_label
  _atom_site_symmetry_multiplicity
  _atom_site_fract_x
  _atom_site_fract_y
  _atom_site_fract_z
  _atom_site_occupancy
  Ho  Ho1       1.0  0.7711116076348955  0.02928766235856865  0.58142667998895  1.0000
  Ga  Ga1       1.0  0.7708616255654476  0.5294147721866901  0.8374252315131052  1.0000
  Mn  Mn1       1.0  0.7711166734549951  0.5294120302589033  0.3370850384349874  1.0000
  Ga  Ga2       1.0  0.27098858263713604  0.529274046482028  0.4740930799213629  1.0000
  Ga  Ga3       1.0  0.270871789171906  0.02949226750267696  0.8375702496244081  1.0000
  Pt  Pt1       1.0  0.27098148984747766  0.5292691583725827  0.6937473413743114  1.0000
  Ho  Ho2       1.0  0.2708564989695623  0.5296050320631505  0.09289245321850427  1.0000
  Ga  Ga4       1.0  0.771071373873417  0.02947655127113568  0.2002763301826694  1.0000
  Pt  Pt2       1.0  0.7708985220277231  0.029550421298372133  0.9808913466441687  1.0000
  Pt  Pt3       1.0  0.2711046646396487  0.029448399150750714  0.33738654857157574  1.0000
