data_image0
_chemical_formula_structural       BTbBTb2RuBMgBTbRu4MgRu5
_chemical_formula_sum              "B4 Tb4 Ru10 Mg2"
_cell_length_a       3.14449766463977
_cell_length_b       9.678618391419766
_cell_length_c       9.674701690673828
_cell_angle_alpha    90.07175364008044
_cell_angle_beta     90.00813042958838
_cell_angle_gamma    90.0139360903119

_space_group_name_H-M_alt    "P 1"
_space_group_IT_number       1

loop_
  _space_group_symop_operation_xyz
  'x, y, z'

loop_
  _atom_site_type_symbol
  _atom_site_label
  _atom_site_symmetry_multiplicity
  _atom_site_fract_x
  _atom_site_fract_y
  _atom_site_fract_z
  _atom_site_occupancy
  B   B1        1.0  0.4820795053258267  0.9425799845836514  0.3051902946569305  1.0000
  Tb  Tb1       1.0  0.4819553507386444  0.995510280642901  0.6054929499594304  1.0000
  B   B2        1.0  0.48212501310591355  0.4424897730280581  0.051888320376745935  1.0000
  Tb  Tb2       1.0  0.4821599708788431  0.6432000399608556  0.25214737692285905  1.0000
  Tb  Tb3       1.0  0.4820288704206958  0.14285761141644732  0.10488852902551464  1.0000
  Ru  Ru1       1.0  0.9819063540685915  0.38865104285149465  0.20482575894557983  1.0000
  B   B3        1.0  0.4820127473017229  0.6951963300503423  0.5518431658364724  1.0000
  Mg  Mg1       1.0  0.48207560143199085  0.3189487752629875  0.4284685548299909  1.0000
  B   B4        1.0  0.4821181302948015  0.1955210272250656  0.8052982092436489  1.0000
  Tb  Tb4       1.0  0.48201727927307847  0.4954264460357244  0.7522139550287935  1.0000
  Ru  Ru2       1.0  0.9818671348341996  0.5426312084644763  0.4980686309293298  1.0000
  Ru  Ru3       1.0  0.9819374690616753  0.888821959173417  0.1526980846356985  1.0000
  Ru  Ru4       1.0  0.9820106627547858  0.7492198346836557  0.7045338746344312  1.0000
  Ru  Ru5       1.0  0.9820190658538092  0.24936920400554585  0.6525386568462448  1.0000
  Mg  Mg2       1.0  0.48208272598670704  0.819315850940332  0.9283651710540147  1.0000
  Ru  Ru6       1.0  0.9819455138824025  0.31907463113848894  0.9284818171054707  1.0000
  Ru  Ru7       1.0  0.9820111999398843  0.042538143193470226  0.8592070941376059  1.0000
  Ru  Ru8       1.0  0.9819909330308001  0.09533029752277508  0.3592845202211092  1.0000
  Ru  Ru9       1.0  0.9819245353698604  0.8192379471959015  0.4285482461504152  1.0000
  Ru  Ru10      1.0  0.9818880559739428  0.5955616233424342  0.9981365800845483  1.0000
