data_image0
_chemical_formula_structural       In3KPdInPdIn2IrPd
_chemical_formula_sum              "In6 K1 Pd3 Ir1"
_cell_length_a       7.163148988771135
_cell_length_b       7.161073717300404
_cell_length_c       7.193830490112305
_cell_angle_alpha    120.34528440419507
_cell_angle_beta     120.41055333210437
_cell_angle_gamma    88.98402626868268

_space_group_name_H-M_alt    "P 1"
_space_group_IT_number       1

loop_
  _space_group_symop_operation_xyz
  'x, y, z'

loop_
  _atom_site_type_symbol
  _atom_site_label
  _atom_site_symmetry_multiplicity
  _atom_site_fract_x
  _atom_site_fract_y
  _atom_site_fract_z
  _atom_site_occupancy
  In  In1       1.0  0.5063551667972577  0.3187957705967873  0.15346077170921507  1.0000
  In  In2       1.0  0.4855604769821901  0.7878069885721651  0.724916041247346  1.0000
  In  In3       1.0  0.5323035722471033  0.19047434654580211  0.5556417110737337  1.0000
  K   K1        1.0  0.008723480552115047  0.31158608237742397  0.1521069265402812  1.0000
  Pd  Pd1       1.0  0.5925218468114495  0.567824840585819  0.9796108014710261  1.0000
  In  In4       1.0  0.1209841078604087  0.42345201997625775  0.740761757599782  1.0000
  Pd  Pd2       1.0  0.26505908373930703  0.8949514629623796  0.9797594551797276  1.0000
  In  In5       1.0  0.8883865472074622  0.8349742889222808  0.5560378424519704  1.0000
  In  In6       1.0  0.01618657394915291  0.8088722223564947  0.15342186328629823  1.0000
  Ir  Ir1       1.0  0.42239358988323233  0.7244448670248544  0.2995793525756061  1.0000
  Pd  Pd3       1.0  0.7568010689337229  0.05871076532399724  0.30217477661892306  1.0000
