data_image0
_chemical_formula_structural       PdZrLiAl
_chemical_formula_sum              "Pd1 Zr1 Li1 Al1"
_cell_length_a       4.5146959472376755
_cell_length_b       4.513745372343122
_cell_length_c       4.513489723205566
_cell_angle_alpha    59.95234741079653
_cell_angle_beta     59.992119792690396
_cell_angle_gamma    59.97914928152078

_space_group_name_H-M_alt    "P 1"
_space_group_IT_number       1

loop_
  _space_group_symop_operation_xyz
  'x, y, z'

loop_
  _atom_site_type_symbol
  _atom_site_label
  _atom_site_symmetry_multiplicity
  _atom_site_fract_x
  _atom_site_fract_y
  _atom_site_fract_z
  _atom_site_occupancy
  Pd  Pd1       1.0  0.11505547791713923  0.27891936972826076  0.3877749752346407  1.0000
  Zr  Zr1       1.0  0.8650843489349054  0.0290226050040852  0.13785423356405244  1.0000
  Li  Li1       1.0  0.6149595382478044  0.7789251794049178  0.8878899825073119  1.0000
  Al  Al1       1.0  0.3651566797000574  0.528917909297175  0.6379567969970619  1.0000
