data_image0
_chemical_formula_structural       Tl3HgTlHgTlIHgI3TlI3
_chemical_formula_sum              "Tl6 Hg3 I7"
_cell_length_a       7.0147493239014524
_cell_length_b       9.876914042567092
_cell_length_c       9.902058601379395
_cell_angle_alpha    90.02541763810068
_cell_angle_beta     89.97349454131626
_cell_angle_gamma    89.98066623834825

_space_group_name_H-M_alt    "P 1"
_space_group_IT_number       1

loop_
  _space_group_symop_operation_xyz
  'x, y, z'

loop_
  _atom_site_type_symbol
  _atom_site_label
  _atom_site_symmetry_multiplicity
  _atom_site_fract_x
  _atom_site_fract_y
  _atom_site_fract_z
  _atom_site_occupancy
  Tl  Tl1       1.0  0.3332383924981886  0.5571674109414899  0.09526124566889681  1.0000
  Tl  Tl2       1.0  0.8331151601811193  0.30862021483227897  0.8436319232454741  1.0000
  Tl  Tl3       1.0  0.8326871399369064  0.8053873185384773  0.8430075641017011  1.0000
  Hg  Hg1       1.0  0.5722774272166848  0.5559986236315868  0.5954050418665979  1.0000
  Tl  Tl4       1.0  0.8334540133532792  0.3102635147994882  0.34734699128007546  1.0000
  Hg  Hg2       1.0  0.09425069407703246  0.5569954513338009  0.5955296160279971  1.0000
  Tl  Tl5       1.0  0.8331623676720631  0.8042049409492339  0.3478729127893311  1.0000
  I   I1        1.0  0.33315727108581344  0.2973841722011733  0.8557120556748672  1.0000
  Hg  Hg3       1.0  0.33326125200982615  0.056946102292859395  0.09560097003937393  1.0000
  I   I2        1.0  0.8332153560532866  0.05775331304761704  0.5946342344235648  1.0000
  I   I3        1.0  0.33283248585425906  0.8166266081356746  0.8555206654045725  1.0000
  I   I4        1.0  0.3334932923657464  0.29756864887833157  0.33537799085811243  1.0000
  Tl  Tl6       1.0  0.3329348563080619  0.05715713990186718  0.5950071211173522  1.0000
  I   I5        1.0  0.833309471892195  0.05677008271197843  0.0957054497708797  1.0000
  I   I6        1.0  0.8335278039902715  0.5574446321882986  0.09426696632433387  1.0000
  I   I7        1.0  0.33322954236000246  0.8172078727763743  0.33580493973860115  1.0000
