data_image0
_chemical_formula_structural       Tb2ClLiClTbClTbCl8LiCl
_chemical_formula_sum              "Tb4 Cl12 Li2"
_cell_length_a       8.706452544232112
_cell_length_b       8.719097655043633
_cell_length_c       8.72928237915039
_cell_angle_alpha    109.28865943704967
_cell_angle_beta     109.20984639184877
_cell_angle_gamma    109.8813034255534

_space_group_name_H-M_alt    "P 1"
_space_group_IT_number       1

loop_
  _space_group_symop_operation_xyz
  'x, y, z'

loop_
  _atom_site_type_symbol
  _atom_site_label
  _atom_site_symmetry_multiplicity
  _atom_site_fract_x
  _atom_site_fract_y
  _atom_site_fract_z
  _atom_site_occupancy
  Tb  Tb1       1.0  0.6395795343203146  0.16152930242566418  0.2159628418538619  1.0000
  Tb  Tb2       1.0  0.1398487844450626  0.16111230903554113  0.7163419135813213  1.0000
  Cl  Cl1       1.0  0.7843756078976538  0.48592546537968373  0.53422528485539  1.0000
  Li  Li1       1.0  0.13958683607545586  0.661516666099441  0.7163690323853015  1.0000
  Cl  Cl2       1.0  0.8247168653347176  0.971013307089971  0.7107135058563486  1.0000
  Tb  Tb3       1.0  0.6394816639071822  0.661184727536091  0.716096996688683  1.0000
  Cl  Cl3       1.0  0.32337352704803923  0.17063281006509953  0.04187981045401922  1.0000
  Tb  Tb4       1.0  0.13971664032659645  0.6613537669372614  0.21597094824732596  1.0000
  Cl  Cl4       1.0  0.13389606787807798  0.8358882066493623  0.535647153967592  1.0000
  Cl  Cl5       1.0  0.955250621340575  0.803937435088099  0.04208233269635114  1.0000
  Cl  Cl6       1.0  0.8252833487712737  0.3513284915919784  0.09161160878697423  1.0000
  Cl  Cl7       1.0  0.9557822948729565  0.15193684415195347  0.3905730544944719  1.0000
  Cl  Cl8       1.0  0.146040349680004  0.4862752255436963  0.8968966001821949  1.0000
  Cl  Cl9       1.0  0.4539996090461095  0.9711442590077812  0.34034851229025237  1.0000
  Cl  Cl10      1.0  0.3242261106896363  0.5192072989914396  0.3905844087785289  1.0000
  Cl  Cl11      1.0  0.4548593166553837  0.35125222802354983  0.7212947611397832  1.0000
  Li  Li2       1.0  0.1399295328831138  0.16178381434737318  0.21669076347985516  1.0000
  Cl  Cl12      1.0  0.4948574606586476  0.8364468812022018  0.8975850340868095  1.0000
