data_image0
_chemical_formula_structural       MgCeMgTiMg12
_chemical_formula_sum              "Mg14 Ce1 Ti1"
_cell_length_a       6.449991737772655
_cell_length_b       6.454515953990211
_cell_length_c       10.109042167663574
_cell_angle_alpha    90.00451042924102
_cell_angle_beta     89.99405340980488
_cell_angle_gamma    120.04442879697547

_space_group_name_H-M_alt    "P 1"
_space_group_IT_number       1

loop_
  _space_group_symop_operation_xyz
  'x, y, z'

loop_
  _atom_site_type_symbol
  _atom_site_label
  _atom_site_symmetry_multiplicity
  _atom_site_fract_x
  _atom_site_fract_y
  _atom_site_fract_z
  _atom_site_occupancy
  Mg  Mg1       1.0  0.882765054244833  0.20355984571538205  0.9358435275688037  1.0000
  Ce  Ce1       1.0  0.37667262574128335  0.7090249064631446  0.9358627791956015  1.0000
  Mg  Mg2       1.0  0.8775699726728611  0.20817320022690333  0.43578979405746626  1.0000
  Ti  Ti1       1.0  0.3768897364399873  0.7091947801043265  0.43569105815963244  1.0000
  Mg  Mg3       1.0  0.8826138979681635  0.7208027251489928  0.9359890822273041  1.0000
  Mg  Mg4       1.0  0.707070648711241  0.8747446536082532  0.6779232028550558  1.0000
  Mg  Mg5       1.0  0.8777434826348394  0.7109395264588694  0.4360258278080938  1.0000
  Mg  Mg6       1.0  0.7102748749767356  0.3758429281036613  0.6926206949508079  1.0000
  Mg  Mg7       1.0  0.7082844381486341  0.8748518830667097  0.19375082857040105  1.0000
  Mg  Mg8       1.0  0.36561155244268795  0.2035077952561947  0.935830115923761  1.0000
  Mg  Mg9       1.0  0.7103782887530381  0.37559381183540713  0.17900814099239368  1.0000
  Mg  Mg10      1.0  0.21184508516387984  0.8744906190172616  0.6777926088094437  1.0000
  Mg  Mg11      1.0  0.3753882059661788  0.2081508494211014  0.43587845564148486  1.0000
  Mg  Mg12      1.0  0.21172760481964378  0.37894567920719796  0.67784309397057  1.0000
  Mg  Mg13      1.0  0.21094399689432553  0.8748581401468732  0.19384338009884614  1.0000
  Mg  Mg14      1.0  0.21160380453420438  0.3779956393064823  0.19357204448279816  1.0000
