data_image0
_chemical_formula_structural       Pb4NaPb3LiPbLiPbLiNaPb2NaPb
_chemical_formula_sum              "Pb12 Na3 Li3"
_cell_length_a       8.357004152248766
_cell_length_b       8.233374654553744
_cell_length_c       8.338687896728516
_cell_angle_alpha    78.3388134843967
_cell_angle_beta     78.35845713699969
_cell_angle_gamma    78.35444213062057

_space_group_name_H-M_alt    "P 1"
_space_group_IT_number       1

loop_
  _space_group_symop_operation_xyz
  'x, y, z'

loop_
  _atom_site_type_symbol
  _atom_site_label
  _atom_site_symmetry_multiplicity
  _atom_site_fract_x
  _atom_site_fract_y
  _atom_site_fract_z
  _atom_site_occupancy
  Pb  Pb1       1.0  0.019088413944699928  0.5526707764538699  0.8128317588961135  1.0000
  Pb  Pb2       1.0  0.029362985908896046  0.03126386904514847  0.3284784858094638  1.0000
  Pb  Pb3       1.0  0.7456066612756626  0.2783223386713102  0.04400433270371568  1.0000
  Pb  Pb4       1.0  0.2500688134884979  0.2784765956667546  0.5395081040008709  1.0000
  Na  Na1       1.0  0.6397708063705532  0.15450648900652225  0.43386185130937366  1.0000
  Pb  Pb5       1.0  0.4288555086478016  0.008925699141540955  0.2232566620425128  1.0000
  Pb  Pb6       1.0  0.5335957411457187  0.030838096690631155  0.824016750327937  1.0000
  Pb  Pb7       1.0  0.28094926433493816  0.8622761364032686  0.6409955031714639  1.0000
  Li  Li1       1.0  0.6398755316661101  0.6543038492106488  0.9343358867372665  1.0000
  Pb  Pb8       1.0  0.4332709914388102  0.44887039026923553  0.7897510524390451  1.0000
  Li  Li2       1.0  0.13972842671294924  0.6545885210366218  0.4338752029077428  1.0000
  Pb  Pb9       1.0  0.8465864662492483  0.8615000847543037  0.07623085345269488  1.0000
  Li  Li3       1.0  0.13979284519772242  0.15503555560317328  0.9342505932280588  1.0000
  Na  Na2       1.0  0.5394848586997326  0.5658140780808805  0.33383640632162265  1.0000
  Pb  Pb10      1.0  0.26033747140882557  0.7560395595184424  0.05461604143298767  1.0000
  Pb  Pb11      1.0  0.8513712877725259  0.29688394085135034  0.6457749606492839  1.0000
  Na  Na3       1.0  0.7423623798835041  0.7432484028428323  0.5356509093915977  1.0000
  Pb  Pb12      1.0  0.9962741133773894  0.4486355779051724  0.22742871928830113  1.0000
