data_image0
_chemical_formula_structural       ScInOMnO4InO
_chemical_formula_sum              "Sc1 In2 O6 Mn1"
_cell_length_a       5.331978794884874
_cell_length_b       5.415112462409735
_cell_length_c       5.7400054931640625
_cell_angle_alpha    60.975366802452236
_cell_angle_beta     63.85502753922407
_cell_angle_gamma    61.78005776148816

_space_group_name_H-M_alt    "P 1"
_space_group_IT_number       1

loop_
  _space_group_symop_operation_xyz
  'x, y, z'

loop_
  _atom_site_type_symbol
  _atom_site_label
  _atom_site_symmetry_multiplicity
  _atom_site_fract_x
  _atom_site_fract_y
  _atom_site_fract_z
  _atom_site_occupancy
  Sc  Sc1       1.0  0.6737787728810137  0.48269415005460686  0.13039164227846917  1.0000
  In  In1       1.0  0.8889747271416857  0.6923268431858778  0.4897424271481871  1.0000
  O   O1        1.0  0.7930507654286323  0.2874458732847308  0.8298180111274076  1.0000
  Mn  Mn1       1.0  0.1804778571344666  0.9918633690794074  0.6125958564324488  1.0000
  O   O2        1.0  0.578740596282269  0.7809585344045598  0.30198648505268805  1.0000
  O   O3        1.0  0.0733637134724357  0.6230019337455296  0.8149207826790916  1.0000
  O   O4        1.0  0.4527986651956433  0.8803392646958166  0.8168101316283727  1.0000
  O   O5        1.0  0.29291290103411904  0.36161166419753116  0.3403684798304869  1.0000
  In  In2       1.0  0.3909300567012861  0.20073661117187105  0.9764027602630267  1.0000
  O   O6        1.0  0.9758699544308922  0.10138946020360927  0.33257666223343757  1.0000
