data_image0
_chemical_formula_structural       VF4V2F8
_chemical_formula_sum              "V3 F12"
_cell_length_a       5.610695034553743
_cell_length_b       5.535302974202112
_cell_length_c       7.41960334777832
_cell_angle_alpha    80.86755487123237
_cell_angle_beta     88.56071081472076
_cell_angle_gamma    86.75483620839647

_space_group_name_H-M_alt    "P 1"
_space_group_IT_number       1

loop_
  _space_group_symop_operation_xyz
  'x, y, z'

loop_
  _atom_site_type_symbol
  _atom_site_label
  _atom_site_symmetry_multiplicity
  _atom_site_fract_x
  _atom_site_fract_y
  _atom_site_fract_z
  _atom_site_occupancy
  V   V1        1.0  0.9018340111967933  0.7605162854210731  0.6529844399766148  1.0000
  F   F1        1.0  0.8787504427744278  0.4457871028012771  0.7377097606547897  1.0000
  F   F2        1.0  0.15430636648175808  0.8553147309321478  0.7506450414318843  1.0000
  F   F3        1.0  0.12448698968960914  0.5366662138530942  0.1242494061496731  1.0000
  F   F4        1.0  0.5506284245380576  0.5683550837562853  0.46599656390446886  1.0000
  V   V2        1.0  0.32887753898376393  0.50028127387875  0.3115665614878428  1.0000
  V   V3        1.0  0.6052097686381575  0.08007451095274569  0.014835240391286152  1.0000
  F   F5        1.0  0.4237127309797681  0.2533366076946659  0.8546615841526062  1.0000
  F   F6        1.0  0.43252825744110684  0.8630842565961642  0.1654932642337776  1.0000
  F   F7        1.0  0.904818296138912  0.0730501122415878  0.06477917760167257  1.0000
  F   F8        1.0  0.6793245073093478  0.8432852027598954  0.8450311418475616  1.0000
  F   F9        1.0  0.7603753803670981  0.0037215613701452196  0.5017247795789215  1.0000
  F   F10       1.0  0.23711843727213194  0.22302108913317756  0.4320481120796641  1.0000
  F   F11       1.0  0.5646748549275055  0.34457203720455326  0.16869175381622942  1.0000
  F   F12       1.0  0.0917698584618074  0.6868085866368782  0.4404731987357313  1.0000
