data_image0
_chemical_formula_structural       ClTiYTcRuSrCo2InFZrMg
_chemical_formula_sum              "Cl1 Ti1 Y1 Tc1 Ru1 Sr1 Co2 In1 F1 Zr1 Mg1"
_cell_length_a       18.374191284179688
_cell_length_b       20.53502655029297
_cell_length_c       20.0
_cell_angle_alpha    90.0
_cell_angle_beta     90.0
_cell_angle_gamma    90.0

_space_group_name_H-M_alt    "P 1"
_space_group_IT_number       1

loop_
  _space_group_symop_operation_xyz
  'x, y, z'

loop_
  _atom_site_type_symbol
  _atom_site_label
  _atom_site_symmetry_multiplicity
  _atom_site_fract_x
  _atom_site_fract_y
  _atom_site_fract_z
  _atom_site_occupancy
  Cl  Cl1       1.0  0.6182379957871432  0.771854694681574  0.3708550453186035  1.0000
  Ti  Ti1       1.0  0.863939589975178  0.3031414181775895  0.41440455317497255  1.0000
  Y   Y1        1.0  0.5000109255662194  0.2314951894193977  0.6743783354759216  1.0000
  Tc  Tc1       1.0  0.3842941485392233  0.5752882260361716  0.5562194347381592  1.0000
  Ru  Ru1       1.0  0.4616344395335048  0.6930684337413856  0.19667658805847169  1.0000
  Sr  Sr1       1.0  0.4060919314592908  0.6879304184142546  0.8033234119415283  1.0000
  Co  Co1       1.0  0.5635020508922737  0.8782567691980174  0.4521635532379151  1.0000
  Co  Co2       1.0  0.537200099695143  0.12174323080198264  0.302482283115387  1.0000
  In  In1       1.0  0.3448496154200691  0.5704164183215577  0.7806157588958741  1.0000
  F   F1        1.0  0.13606041002482205  0.6511650787440922  0.32053580284118655  1.0000
  Zr  Zr1       1.0  0.7697353615059656  0.32052822296454075  0.4002348363399506  1.0000
  Mg  Mg1       1.0  0.6558411087378786  0.5999813781804428  0.6185339450836183  1.0000
