data_image0
_chemical_formula_structural       SMgBNbRbCaRbClBeVSiSr
_chemical_formula_sum              "S1 Mg1 B1 Nb1 Rb2 Ca1 Cl1 Be1 V1 Si1 Sr1"
_cell_length_a       18.171955108642578
_cell_length_b       11.238412857055664
_cell_length_c       20.0
_cell_angle_alpha    90.0
_cell_angle_beta     90.0
_cell_angle_gamma    90.0

_space_group_name_H-M_alt    "P 1"
_space_group_IT_number       1

loop_
  _space_group_symop_operation_xyz
  'x, y, z'

loop_
  _atom_site_type_symbol
  _atom_site_label
  _atom_site_symmetry_multiplicity
  _atom_site_fract_x
  _atom_site_fract_y
  _atom_site_fract_z
  _atom_site_occupancy
  S   S1        1.0  0.1480409323149866  0.27036276139585363  0.3107850015163422  1.0000
  Mg  Mg1       1.0  0.3540640496852321  0.22245131882762956  0.5495163261890411  1.0000
  B   B1        1.0  0.2951749874938834  0.36960808336154877  0.6083010599017143  1.0000
  Nb  Nb1       1.0  0.36741720903572433  0.7239119025010331  0.48887758851051333  1.0000
  Rb  Rb1       1.0  0.47374901306213496  0.4858347324370583  0.48736389279365544  1.0000
  Ca  Ca1       1.0  0.13757465621561868  0.40386873659766825  0.6319908253848553  1.0000
  Rb  Rb2       1.0  0.6152667854336646  0.42897671234809276  0.46676746010780334  1.0000
  Cl  Cl1       1.0  0.18031503133404103  0.7775486811723704  0.6892149984836579  1.0000
  Be  Be1       1.0  0.8624253437843813  0.5485789285432434  0.45455338358879094  1.0000
  V   V1        1.0  0.7216111415381715  0.46145999868045107  0.546446168422699  1.0000
  Si  Si1       1.0  0.36380620562637744  0.33383064629045517  0.4711487710475922  1.0000
  Sr  Sr1       1.0  0.2853618712803093  0.6865526084215224  0.5414682269096375  1.0000
