data_image0
_chemical_formula_structural       Ni2TcCaNRu2BAsZrZnV
_chemical_formula_sum              "Ni2 Tc1 Ca1 N1 Ru2 B1 As1 Zr1 Zn1 V1"
_cell_length_a       15.904998779296875
_cell_length_b       16.881500244140625
_cell_length_c       20.0
_cell_angle_alpha    90.0
_cell_angle_beta     90.0
_cell_angle_gamma    90.0

_space_group_name_H-M_alt    "P 1"
_space_group_IT_number       1

loop_
  _space_group_symop_operation_xyz
  'x, y, z'

loop_
  _atom_site_type_symbol
  _atom_site_label
  _atom_site_symmetry_multiplicity
  _atom_site_fract_x
  _atom_site_fract_y
  _atom_site_fract_z
  _atom_site_occupancy
  Ni  Ni1       1.0  0.6270302381637646  0.3923922407072471  0.9141387104988099  1.0000
  Ni  Ni2       1.0  0.5112279016839952  0.6095501119224908  0.319840943813324  1.0000
  Tc  Tc1       1.0  0.5986091673861946  0.5656929997487223  0.35632281303405766  1.0000
  Ca  Ca1       1.0  0.4170907010001439  0.2951009590354193  0.6210323572158813  1.0000
  N   N1        1.0  0.6315570435794119  0.2836666970595094  0.37480601072311404  1.0000
  Ru  Ru1       1.0  0.7847423190387106  0.18282517969062118  0.0858612895011902  1.0000
  Ru  Ru2       1.0  0.16919805607521465  0.6758930129001235  0.45642519593238834  1.0000
  B   B1        1.0  0.8280652192161941  0.48718465201268407  0.5570888355374336  1.0000
  As  As1       1.0  0.8428167122367727  0.3535473560034564  0.25271972417831423  1.0000
  Zr  Zr1       1.0  0.5908202019475224  0.4124660778025138  0.5922166287899018  1.0000
  Zn  Zn1       1.0  0.15718328776322732  0.8519088682473656  0.46157562732696533  1.0000
  V   V1        1.0  0.6006908443061352  0.14809113175263433  0.6905119299888611  1.0000
