data_image0
_chemical_formula_structural       N3B4N3B2
_chemical_formula_sum              "N6 B6"
_cell_length_a       12.079484939575195
_cell_length_b       10.623977661132812
_cell_length_c       20.0
_cell_angle_alpha    90.0
_cell_angle_beta     90.0
_cell_angle_gamma    90.0

_space_group_name_H-M_alt    "P 1"
_space_group_IT_number       1

loop_
  _space_group_symop_operation_xyz
  'x, y, z'

loop_
  _atom_site_type_symbol
  _atom_site_label
  _atom_site_symmetry_multiplicity
  _atom_site_fract_x
  _atom_site_fract_y
  _atom_site_fract_z
  _atom_site_occupancy
  N   N1        1.0  0.6267417338254123  0.6982297226187895  0.6926121473312379  1.0000
  N   N2        1.0  0.14718437363268616  0.49117123979178545  0.5033997714519501  1.0000
  N   N3        1.0  0.6488090642082295  0.7428979884108219  0.7684104800224305  1.0000
  B   B1        1.0  0.17375761254823643  0.9905873385823831  0.4669399976730347  1.0000
  B   B2        1.0  0.008278490774465514  0.8302942231487692  0.3142967581748963  1.0000
  B   B3        1.0  0.16712959936549532  0.906959355112294  0.2315895199775696  1.0000
  B   B4        1.0  0.2893762926074931  0.2859026056261158  0.5313114106655121  1.0000
  N   N4        1.0  0.9917215092255345  0.9399332480434555  0.5750533055514098  1.0000
  N   N5        1.0  0.7283371300347743  0.885995643824874  0.5298672646284104  1.0000
  N   N6        1.0  0.12865897331319162  0.009412661417616873  0.6043151795864106  1.0000
  B   B5        1.0  0.9872308380265111  0.4734063140930811  0.571216394752264  1.0000
  B   B6        1.0  0.40810457792664573  0.3671668986525013  0.4393126726150513  1.0000
