data_image0
_chemical_formula_structural       Se6NbSeNb3Se
_chemical_formula_sum              "Se8 Nb4"
_cell_length_a       12.033242225646973
_cell_length_b       10.95206356048584
_cell_length_c       20.0
_cell_angle_alpha    90.0
_cell_angle_beta     90.0
_cell_angle_gamma    90.0

_space_group_name_H-M_alt    "P 1"
_space_group_IT_number       1

loop_
  _space_group_symop_operation_xyz
  'x, y, z'

loop_
  _atom_site_type_symbol
  _atom_site_label
  _atom_site_symmetry_multiplicity
  _atom_site_fract_x
  _atom_site_fract_y
  _atom_site_fract_z
  _atom_site_occupancy
  Se  Se1       1.0  0.6039969902761733  0.46855910242979165  0.4139119803905487  1.0000
  Se  Se2       1.0  0.70809934783241  0.1566234438989449  0.2603688031435013  1.0000
  Se  Se3       1.0  0.5782267649693064  0.07062765460088152  0.3047815501689911  1.0000
  Se  Se4       1.0  0.04433848408541954  0.9908693093241935  0.3664183735847473  1.0000
  Se  Se5       1.0  0.32002452008354254  0.009130690675806515  0.2775074641685933  1.0000
  Se  Se6       1.0  0.40468125743940947  0.9663230486819526  0.24274053275585175  1.0000
  Nb  Nb1       1.0  0.6265991634495766  0.35078162830933385  0.2457503765821457  1.0000
  Se  Se7       1.0  0.48849035831928767  0.527293010901796  0.9205779731273651  1.0000
  Nb  Nb2       1.0  0.285334118892175  0.7272345103056225  0.17860229015350343  1.0000
  Nb  Nb3       1.0  0.9916896956981857  0.2998091225663791  0.07942202687263489  1.0000
  Nb  Nb4       1.0  0.5796456568510646  0.6012839218775293  0.49042922854423526  1.0000
  Se  Se8       1.0  0.00831030430181437  0.3781980492806079  0.41854565739631655  1.0000
