data_image0
_chemical_formula_structural       RbClBrInClNaAsCaNeBTiRh
_chemical_formula_sum              "Rb1 Cl2 Br1 In1 Na1 As1 Ca1 Ne1 B1 Ti1 Rh1"
_cell_length_a       21.68108558654785
_cell_length_b       20.075721740722656
_cell_length_c       20.0
_cell_angle_alpha    90.0
_cell_angle_beta     90.0
_cell_angle_gamma    90.0

_space_group_name_H-M_alt    "P 1"
_space_group_IT_number       1

loop_
  _space_group_symop_operation_xyz
  'x, y, z'

loop_
  _atom_site_type_symbol
  _atom_site_label
  _atom_site_symmetry_multiplicity
  _atom_site_fract_x
  _atom_site_fract_y
  _atom_site_fract_z
  _atom_site_occupancy
  Rb  Rb1       1.0  0.4099793127255571  0.2959400349248394  0.3779442965984345  1.0000
  Cl  Cl1       1.0  0.5601494461185815  0.39329441717986674  0.3569061577320099  1.0000
  Br  Br1       1.0  0.8846921206956935  0.1454997691312304  0.7778316497802735  1.0000
  In  In1       1.0  0.11530787930430655  0.39865623004837797  0.439326012134552  1.0000
  Cl  Cl2       1.0  0.3660401219903031  0.12452850041708391  0.2617081761360169  1.0000
  Na  Na1       1.0  0.5408477243668215  0.8380160344536011  0.36153506040573125  1.0000
  As  As1       1.0  0.3661250598545825  0.3105776018340291  0.6237758278846741  1.0000
  Ca  Ca1       1.0  0.7343616019976189  0.3924590558274888  0.2761950969696045  1.0000
  Ne  Ne1       1.0  0.6972597004011478  0.5014326333480912  0.7879080772399902  1.0000
  B   B1        1.0  0.4069942042553738  0.3215817645974618  0.448204842209816  1.0000
  Ti  Ti1       1.0  0.4771643551192724  0.8754714995829161  0.42971061244606973  1.0000
  Rh  Rh1       1.0  0.7379284864530045  0.7273847176275432  0.21209192276000977  1.0000
