data_image0
_chemical_formula_structural       S2MoSMoSMoS3MoS
_chemical_formula_sum              "S8 Mo4"
_cell_length_a       9.499678611755371
_cell_length_b       18.316654205322266
_cell_length_c       20.0
_cell_angle_alpha    90.0
_cell_angle_beta     90.0
_cell_angle_gamma    90.0

_space_group_name_H-M_alt    "P 1"
_space_group_IT_number       1

loop_
  _space_group_symop_operation_xyz
  'x, y, z'

loop_
  _atom_site_type_symbol
  _atom_site_label
  _atom_site_symmetry_multiplicity
  _atom_site_fract_x
  _atom_site_fract_y
  _atom_site_fract_z
  _atom_site_occupancy
  S   S1        1.0  0.730020323989184  0.005459507151885382  0.5278769135475159  1.0000
  S   S2        1.0  0.5346097169147893  0.4732608089948475  0.6267838954925538  1.0000
  Mo  Mo1       1.0  0.20249103139351088  0.6135245957546244  0.8413857221603394  1.0000
  S   S3        1.0  0.44093725420095203  0.69832241891819  0.15861427783966064  1.0000
  Mo  Mo2       1.0  0.3166332576558796  0.1914811070307591  0.4292594060301781  1.0000
  S   S4        1.0  0.010526661871363053  0.7426991018204137  0.4665805578231812  1.0000
  Mo  Mo3       1.0  0.1848390268779612  0.9945404928481146  0.24489195346832277  1.0000
  S   S5        1.0  0.989473338128637  0.6341278669343829  0.3908373773097992  1.0000
  S   S6        1.0  0.8325446096253087  0.21166138127678663  0.6140843868255615  1.0000
  S   S7        1.0  0.27222881729843035  0.5213782405597633  0.3546418130397797  1.0000
  Mo  Mo4       1.0  0.1296642149714867  0.4018302697371148  0.49688149690628053  1.0000
  S   S8        1.0  0.11234633402719671  0.44344867992988174  0.29638750553131105  1.0000
