data_image0
_chemical_formula_structural       PMoSe2KInKAgRhPMoRh
_chemical_formula_sum              "P2 Mo2 Se2 K2 In1 Ag1 Rh2"
_cell_length_a       16.900543212890625
_cell_length_b       16.397117614746094
_cell_length_c       20.0
_cell_angle_alpha    90.0
_cell_angle_beta     90.0
_cell_angle_gamma    90.0

_space_group_name_H-M_alt    "P 1"
_space_group_IT_number       1

loop_
  _space_group_symop_operation_xyz
  'x, y, z'

loop_
  _atom_site_type_symbol
  _atom_site_label
  _atom_site_symmetry_multiplicity
  _atom_site_fract_x
  _atom_site_fract_y
  _atom_site_fract_z
  _atom_site_occupancy
  P   P1        1.0  0.6288303676143966  0.5378722622700136  0.8670342683792115  1.0000
  Mo  Mo1       1.0  0.7799770691020356  0.1524658501314208  0.43419889211654666  1.0000
  Se  Se1       1.0  0.5652926788127012  0.6093853363171138  0.15845710039138794  1.0000
  Se  Se2       1.0  0.14792425349451152  0.7959803878460993  0.1329657316207886  1.0000
  K   K1        1.0  0.7241966313920082  0.7301548672926662  0.3543127289041877  1.0000
  In  In1       1.0  0.29486702990897384  0.6388086253660078  0.19384701251983644  1.0000
  K   K2        1.0  0.7501779335433381  0.794480893033371  0.5475654721260071  1.0000
  Ag  Ag1       1.0  0.8520757465054885  0.5475751468974778  0.559916877746582  1.0000
  Rh  Rh1       1.0  0.6278108505914621  0.7459061713807398  0.41249363422393803  1.0000
  P   P2        1.0  0.8204271065254958  0.7636092745775992  0.34444004446268084  1.0000
  Mo  Mo2       1.0  0.3716123501707304  0.5814144188144069  0.4546155095100403  1.0000
  Rh  Rh2       1.0  0.5553982907573759  0.8475341498685792  0.42101864218711854  1.0000
