data_image0
_chemical_formula_structural       CrScSePdHLiVInAgAlClCa
_chemical_formula_sum              "Cr1 Sc1 Se1 Pd1 H1 Li1 V1 In1 Ag1 Al1 Cl1 Ca1"
_cell_length_a       18.947551727294922
_cell_length_b       18.992338180541992
_cell_length_c       20.0
_cell_angle_alpha    90.0
_cell_angle_beta     90.0
_cell_angle_gamma    90.0

_space_group_name_H-M_alt    "P 1"
_space_group_IT_number       1

loop_
  _space_group_symop_operation_xyz
  'x, y, z'

loop_
  _atom_site_type_symbol
  _atom_site_label
  _atom_site_symmetry_multiplicity
  _atom_site_fract_x
  _atom_site_fract_y
  _atom_site_fract_z
  _atom_site_occupancy
  Cr  Cr1       1.0  0.5859079297595302  0.626301135681758  0.5742165178060532  1.0000
  Sc  Sc1       1.0  0.6263115313921699  0.35975300039015995  0.743259596824646  1.0000
  Se  Se1       1.0  0.7611968533438883  0.44791724673875  0.4606336832046509  1.0000
  Pd  Pd1       1.0  0.7176642122276543  0.5196096605508135  0.4707359492778778  1.0000
  H   H1        1.0  0.727984112903859  0.8683679840883036  0.6308064877986909  1.0000
  Li  Li1       1.0  0.7040446187497571  0.5042208952990498  0.6063568890094757  1.0000
  V   V1        1.0  0.6604898156820221  0.21958130867776957  0.4680778384208679  1.0000
  In  In1       1.0  0.7696210751105247  0.8339436256553506  0.6993222117424012  1.0000
  Ag  Ag1       1.0  0.6833901455248423  0.16418985825193286  0.256740403175354  1.0000
  Al  Al1       1.0  0.8680568320392221  0.13163201591169632  0.7343066811561585  1.0000
  Cl  Cl1       1.0  0.13194316796077782  0.2919621404264443  0.48754526376724244  1.0000
  Ca  Ca1       1.0  0.6884821723914316  0.596177763293934  0.5778161704540253  1.0000
