data_image0
_chemical_formula_structural       GaS2Ga2SGaS2Ga2S
_chemical_formula_sum              "Ga6 S6"
_cell_length_a       9.546374320983887
_cell_length_b       11.180634498596191
_cell_length_c       20.0
_cell_angle_alpha    90.0
_cell_angle_beta     90.0
_cell_angle_gamma    90.0

_space_group_name_H-M_alt    "P 1"
_space_group_IT_number       1

loop_
  _space_group_symop_operation_xyz
  'x, y, z'

loop_
  _atom_site_type_symbol
  _atom_site_label
  _atom_site_symmetry_multiplicity
  _atom_site_fract_x
  _atom_site_fract_y
  _atom_site_fract_z
  _atom_site_occupancy
  Ga  Ga1       1.0  0.9895248288753188  0.27805123277587496  0.39351144433021545  1.0000
  S   S1        1.0  0.7117914867775034  0.379531668421652  0.5547314792871475  1.0000
  S   S2        1.0  0.010475171124681184  0.8834665032376601  0.24197139143943788  1.0000
  Ga  Ga2       1.0  0.64932052620059  0.9714817876028522  0.7149099051952362  1.0000
  Ga  Ga3       1.0  0.6387766619490977  0.8334479937937921  0.7580286085605622  1.0000
  S   S3        1.0  0.7256761146917727  0.5856668413655364  0.4279837787151337  1.0000
  Ga  Ga4       1.0  0.49009972875268265  0.9910559509781218  0.7321682870388031  1.0000
  S   S4        1.0  0.1101066283160636  0.34183833749369336  0.5029936254024506  1.0000
  S   S5        1.0  0.48289064436325757  0.12520463810838603  0.6296956092119217  1.0000
  Ga  Ga5       1.0  0.5299216539966288  0.32470910532427993  0.7499211966991425  1.0000
  Ga  Ga6       1.0  0.3756510862180284  0.6215756142768374  0.660161590576172  1.0000
  S   S6        1.0  0.1459706342564644  0.008944049021878248  0.4813433825969696  1.0000
