data_image0
_chemical_formula_structural       SePt2Se6Pt2Se
_chemical_formula_sum              "Se8 Pt4"
_cell_length_a       13.426478385925293
_cell_length_b       15.192093849182129
_cell_length_c       20.0
_cell_angle_alpha    90.0
_cell_angle_beta     90.0
_cell_angle_gamma    90.0

_space_group_name_H-M_alt    "P 1"
_space_group_IT_number       1

loop_
  _space_group_symop_operation_xyz
  'x, y, z'

loop_
  _atom_site_type_symbol
  _atom_site_label
  _atom_site_symmetry_multiplicity
  _atom_site_fract_x
  _atom_site_fract_y
  _atom_site_fract_z
  _atom_site_occupancy
  Se  Se1       1.0  0.9925520554728023  0.576733494966907  0.7567362546920777  1.0000
  Pt  Pt1       1.0  0.007447944527197607  0.31832453288797  0.5305875182151795  1.0000
  Pt  Pt2       1.0  0.8838071536947028  0.9339609411512132  0.9062798380851746  1.0000
  Se  Se2       1.0  0.7064854184159128  0.2617757994082259  0.8286774396896363  1.0000
  Se  Se3       1.0  0.43394737277627454  0.7781972170232827  0.709896594285965  1.0000
  Se  Se4       1.0  0.5859739774665002  0.9934176351446149  0.48021303415298466  1.0000
  Se  Se5       1.0  0.744758653916705  0.4731931963240577  0.09372016191482545  1.0000
  Se  Se6       1.0  0.12245909294214521  0.47006778534801963  0.7497100830078125  1.0000
  Se  Se7       1.0  0.4619050482207746  0.8039682826152938  0.6424162901937962  1.0000
  Pt  Pt3       1.0  0.8764476940066055  0.379824533044906  0.4959862470626831  1.0000
  Pt  Pt4       1.0  0.5348169562895194  0.006582364855385085  0.289083731174469  1.0000
  Se  Se8       1.0  0.45664721444470335  0.3283927592260295  0.39535185098648074  1.0000
