data_image0
_chemical_formula_structural       MgMnAlGeFNiFCBrCuGeZr
_chemical_formula_sum              "Mg1 Mn1 Al1 Ge2 F2 Ni1 C1 Br1 Cu1 Zr1"
_cell_length_a       12.332396507263184
_cell_length_b       14.982271194458008
_cell_length_c       20.0
_cell_angle_alpha    90.0
_cell_angle_beta     90.0
_cell_angle_gamma    90.0

_space_group_name_H-M_alt    "P 1"
_space_group_IT_number       1

loop_
  _space_group_symop_operation_xyz
  'x, y, z'

loop_
  _atom_site_type_symbol
  _atom_site_label
  _atom_site_symmetry_multiplicity
  _atom_site_fract_x
  _atom_site_fract_y
  _atom_site_fract_z
  _atom_site_occupancy
  Mg  Mg1       1.0  0.4883656073504489  0.8331360975935785  0.7237228155136108  1.0000
  Mn  Mn1       1.0  0.5388153247256399  0.16686390240642135  0.33005638122558595  1.0000
  Al  Al1       1.0  0.20271810094069073  0.20795473279843157  0.6659157991409302  1.0000
  Ge  Ge1       1.0  0.36956654336267647  0.6812137612547382  0.368161141872406  1.0000
  F   F1        1.0  0.7658020307846255  0.22723519339531062  0.21240704059600832  1.0000
  Ni  Ni1       1.0  0.3646412927818254  0.6474238067351791  0.7875929594039918  1.0000
  F   F2        1.0  0.7972818990593092  0.30470776668438354  0.519438947737217  1.0000
  C   C1        1.0  0.4208891371852587  0.474309645736328  0.5683129131793976  1.0000
  Br  Br1       1.0  0.3988867990788981  0.589631485895971  0.5162234336137772  1.0000
  Cu  Cu1       1.0  0.2660747959143035  0.364295355520829  0.46200350522995  1.0000
  Ge  Ge2       1.0  0.42642041489144106  0.750415530186091  0.4702819049358368  1.0000
  Zr  Zr1       1.0  0.6045282607409607  0.37309467506468785  0.5307598475366831  1.0000
