data_image0
_chemical_formula_structural       CrZnAsGeBeCrSiTiInOCl2
_chemical_formula_sum              "Cr2 Zn1 As1 Ge1 Be1 Si1 Ti1 In1 O1 Cl2"
_cell_length_a       15.852978706359863
_cell_length_b       16.708425521850586
_cell_length_c       20.0
_cell_angle_alpha    90.0
_cell_angle_beta     90.0
_cell_angle_gamma    90.0

_space_group_name_H-M_alt    "P 1"
_space_group_IT_number       1

loop_
  _space_group_symop_operation_xyz
  'x, y, z'

loop_
  _atom_site_type_symbol
  _atom_site_label
  _atom_site_symmetry_multiplicity
  _atom_site_fract_x
  _atom_site_fract_y
  _atom_site_fract_z
  _atom_site_occupancy
  Cr  Cr1       1.0  0.8369693506361315  0.6744723075625224  0.4578247368335724  1.0000
  Zn  Zn1       1.0  0.4127071077136071  0.1496251238723351  0.5942560017108918  1.0000
  As  As1       1.0  0.5035092154852662  0.7801954548770227  0.6066100180149079  1.0000
  Ge  Ge1       1.0  0.8423009223997541  0.49144048014920505  0.5600746601819993  1.0000
  Be  Be1       1.0  0.15769907760024587  0.7044328316567974  0.6316413938999177  1.0000
  Cr  Cr2       1.0  0.5622322731570428  0.8503748761276649  0.7197664618492127  1.0000
  Si  Si1       1.0  0.8152305039874443  0.44936152879437474  0.3563161611557007  1.0000
  Ti  Ti1       1.0  0.809095778013822  0.820051681918332  0.4817322134971619  1.0000
  In  In1       1.0  0.29583880440013033  0.6935443663586882  0.8435264348983765  1.0000
  O   O1        1.0  0.2048421625678508  0.8301260943602115  0.3975337386131287  1.0000
  Cl  Cl1       1.0  0.748861133541474  0.6330877140846712  0.15647356510162355  1.0000
  Cl  Cl2       1.0  0.8256876685046964  0.4250579079265395  0.7082249999046326  1.0000
