data_image0
_chemical_formula_structural       SeYKrCTiNaCdKrSiGaCP
_chemical_formula_sum              "Se1 Y1 Kr2 C2 Ti1 Na1 Cd1 Si1 Ga1 P1"
_cell_length_a       15.767662048339844
_cell_length_b       23.222623825073242
_cell_length_c       20.0
_cell_angle_alpha    90.0
_cell_angle_beta     90.0
_cell_angle_gamma    90.0

_space_group_name_H-M_alt    "P 1"
_space_group_IT_number       1

loop_
  _space_group_symop_operation_xyz
  'x, y, z'

loop_
  _atom_site_type_symbol
  _atom_site_label
  _atom_site_symmetry_multiplicity
  _atom_site_fract_x
  _atom_site_fract_y
  _atom_site_fract_z
  _atom_site_occupancy
  Se  Se1       1.0  0.8414476418675385  0.8923463593592394  0.4786689341068268  1.0000
  Y   Y1        1.0  0.38439257482584543  0.4303167571695927  0.8579574823379517  1.0000
  Kr  Kr1       1.0  0.5154088548181182  0.30490534229713284  0.589928275346756  1.0000
  C   C1        1.0  0.3889365511136358  0.1978985725494551  0.8353649377822876  1.0000
  Ti  Ti1       1.0  0.5664452028935999  0.7554598461825676  0.20169925689697266  1.0000
  Na  Na1       1.0  0.46330215743499653  0.3302172575343463  0.14204251766204834  1.0000
  Cd  Cd1       1.0  0.6166967528895112  0.4384708119721966  0.5024894773960114  1.0000
  Kr  Kr2       1.0  0.7181173183661481  0.6030566038262741  0.7547266244888307  1.0000
  Si  Si1       1.0  0.15855235813246146  0.1076536406407606  0.5243130803108216  1.0000
  Ga  Ga1       1.0  0.5235959425816241  0.4862221848698636  0.39058005809783936  1.0000
  C   C2        1.0  0.5008687351484178  0.1948975482661967  0.45715333223342897  1.0000
  P   P1        1.0  0.34996543703267863  0.4524284551983464  0.6994595885276795  1.0000
