data_image0
_chemical_formula_structural       OCaLiKrAsBeNiCuZrHe2N
_chemical_formula_sum              "O1 Ca1 Li1 Kr1 As1 Be1 Ni1 Cu1 Zr1 He2 N1"
_cell_length_a       16.68501091003418
_cell_length_b       17.293855667114258
_cell_length_c       20.0
_cell_angle_alpha    90.0
_cell_angle_beta     90.0
_cell_angle_gamma    90.0

_space_group_name_H-M_alt    "P 1"
_space_group_IT_number       1

loop_
  _space_group_symop_operation_xyz
  'x, y, z'

loop_
  _atom_site_type_symbol
  _atom_site_label
  _atom_site_symmetry_multiplicity
  _atom_site_fract_x
  _atom_site_fract_y
  _atom_site_fract_z
  _atom_site_occupancy
  O   O1        1.0  0.7252656854316041  0.4973035135477036  0.2289394497871399  1.0000
  Ca  Ca1       1.0  0.304272463859568  0.39111835542250595  0.5696915745735168  1.0000
  Li  Li1       1.0  0.4821927712477184  0.5961413564795857  0.3502676010131836  1.0000
  Kr  Kr1       1.0  0.8501649309633985  0.7204107032113627  0.2410124182701111  1.0000
  As  As1       1.0  0.4179390222698383  0.14455999921031976  0.7710605502128601  1.0000
  Be  Be1       1.0  0.7842873413978062  0.7724611504339767  0.4891647905111313  1.0000
  Ni  Ni1       1.0  0.4703270732100171  0.5973574617331816  0.3437923789024353  1.0000
  Cu  Cu1       1.0  0.346614332643899  0.45521484541512863  0.6678040146827698  1.0000
  Zr  Zr1       1.0  0.4328639441154647  0.5745638116095348  0.5940722584724426  1.0000
  He  He1       1.0  0.7737976738249638  0.8554400007896802  0.7358289361000061  1.0000
  He  He2       1.0  0.14983506903660151  0.831002430141698  0.7225740790367127  1.0000
  N   N1        1.0  0.6552456454236066  0.4957881698178695  0.255202579498291  1.0000
