data_image0
_chemical_formula_structural       S2TiS2TiSTi2S3
_chemical_formula_sum              "S8 Ti4"
_cell_length_a       8.278142929077148
_cell_length_b       10.181342124938965
_cell_length_c       20.0
_cell_angle_alpha    90.0
_cell_angle_beta     90.0
_cell_angle_gamma    90.0

_space_group_name_H-M_alt    "P 1"
_space_group_IT_number       1

loop_
  _space_group_symop_operation_xyz
  'x, y, z'

loop_
  _atom_site_type_symbol
  _atom_site_label
  _atom_site_symmetry_multiplicity
  _atom_site_fract_x
  _atom_site_fract_y
  _atom_site_fract_z
  _atom_site_occupancy
  S   S1        1.0  0.3963515552583551  0.2932271775214312  0.3259949699044228  1.0000
  S   S2        1.0  0.9879200074836451  0.5540329415447544  0.36699260771274567  1.0000
  Ti  Ti1       1.0  0.3336564034587896  0.009821855015464254  0.2756582677364349  1.0000
  S   S3        1.0  0.49190918718812865  0.801878781117602  0.5878279000520706  1.0000
  S   S4        1.0  0.7396963651557983  0.4954635487313448  0.2630125731229782  1.0000
  Ti  Ti2       1.0  0.01207999251635492  0.6269067400899089  0.7369874268770218  1.0000
  S   S5        1.0  0.6701431650334978  0.6720131571207365  0.28388547897338867  1.0000
  Ti  Ti3       1.0  0.9673819177347411  0.7881452927061681  0.3386567085981369  1.0000
  Ti  Ti4       1.0  0.727268687281559  0.23178670653961053  0.6864268571138382  1.0000
  S   S6        1.0  0.7209460094637696  0.11440122065461204  0.5316023856401444  1.0000
  S   S7        1.0  0.11252462771285014  0.9901781449845357  0.5801050931215287  1.0000
  S   S8        1.0  0.17598106485725892  0.4095369472450641  0.3059612900018692  1.0000
