data_image0
_chemical_formula_structural       ZrGaONaRbZrPdMgNSClGe
_chemical_formula_sum              "Zr2 Ga1 O1 Na1 Rb1 Pd1 Mg1 N1 S1 Cl1 Ge1"
_cell_length_a       20.350177764892578
_cell_length_b       17.011211395263672
_cell_length_c       20.0
_cell_angle_alpha    90.0
_cell_angle_beta     90.0
_cell_angle_gamma    90.0

_space_group_name_H-M_alt    "P 1"
_space_group_IT_number       1

loop_
  _space_group_symop_operation_xyz
  'x, y, z'

loop_
  _atom_site_type_symbol
  _atom_site_label
  _atom_site_symmetry_multiplicity
  _atom_site_fract_x
  _atom_site_fract_y
  _atom_site_fract_z
  _atom_site_occupancy
  Zr  Zr1       1.0  0.5735779902888216  0.14696187502901184  0.7058031916618348  1.0000
  Ga  Ga1       1.0  0.6173254842795544  0.6244737155017046  0.673364520072937  1.0000
  O   O1        1.0  0.6499682876770233  0.6747827812432515  0.2173768997192383  1.0000
  Na  Na1       1.0  0.39828582288112285  0.3557281808015317  0.4922277063131333  1.0000
  Rb  Rb1       1.0  0.2960932545681772  0.547656306806084  0.0819007158279419  1.0000
  Zr  Zr2       1.0  0.4964015130391212  0.6032599744090387  0.8562732696533204  1.0000
  Pd  Pd1       1.0  0.7384930357545546  0.23814559602026017  0.36080532073974614  1.0000
  Mg  Mg1       1.0  0.4398849674966263  0.6603375643333937  0.7449139833450318  1.0000
  N   N1        1.0  0.5503654673000821  0.7418250535331425  0.4009737849235535  1.0000
  S   S1        1.0  0.12284903800173844  0.7554706790417607  0.9180992841720581  1.0000
  Cl  Cl1       1.0  0.44695061903466693  0.24701015520743097  0.2586479425430298  1.0000
  Ge  Ge1       1.0  0.8771509619982616  0.8530381249709881  0.4400126695632935  1.0000
