data_image0
_chemical_formula_structural       NNeTiKrHeLiFArZnMnAgCa
_chemical_formula_sum              "N1 Ne1 Ti1 Kr1 He1 Li1 F1 Ar1 Zn1 Mn1 Ag1 Ca1"
_cell_length_a       18.833024978637695
_cell_length_b       15.74140739440918
_cell_length_c       20.0
_cell_angle_alpha    90.0
_cell_angle_beta     90.0
_cell_angle_gamma    90.0

_space_group_name_H-M_alt    "P 1"
_space_group_IT_number       1

loop_
  _space_group_symop_operation_xyz
  'x, y, z'

loop_
  _atom_site_type_symbol
  _atom_site_label
  _atom_site_symmetry_multiplicity
  _atom_site_fract_x
  _atom_site_fract_y
  _atom_site_fract_z
  _atom_site_occupancy
  N   N1        1.0  0.22627494587007868  0.3171000792532692  0.2623845338821411  1.0000
  Ne  Ne1       1.0  0.7137490177415697  0.5826299225702654  0.7105333089828492  1.0000
  Ti  Ti1       1.0  0.16830125322959077  0.31044564017601534  0.4686279177665711  1.0000
  Kr  Kr1       1.0  0.66881004258791  0.5429257369201691  0.6371301203966141  1.0000
  He  He1       1.0  0.8080045820665714  0.31819795549299557  0.5495808064937592  1.0000
  Li  Li1       1.0  0.20905885083840486  0.39618152106783555  0.6731505036354065  1.0000
  F   F1        1.0  0.5761709700363452  0.45349282130407603  0.42187324762344364  1.0000
  Ar  Ar1       1.0  0.867254451090341  0.15881679561121242  0.6924307584762573  1.0000
  Zn  Zn1       1.0  0.13274554890965895  0.16164877031238584  0.4276901602745056  1.0000
  Mn  Mn1       1.0  0.4079168057745807  0.5399385768089324  0.43305671215057373  1.0000
  Ag  Ag1       1.0  0.24174796577937718  0.8411832043887876  0.8595767259597779  1.0000
  Ca  Ca1       1.0  0.6909681672817376  0.6670409104848873  0.14042327404022217  1.0000
