data_image0
_chemical_formula_structural       NbRhAsHeAgMgVNbKrBeKCa
_chemical_formula_sum              "Nb2 Rh1 As1 He1 Ag1 Mg1 V1 Kr1 Be1 K1 Ca1"
_cell_length_a       23.768630981445312
_cell_length_b       18.528343200683594
_cell_length_c       20.0
_cell_angle_alpha    90.0
_cell_angle_beta     90.0
_cell_angle_gamma    90.0

_space_group_name_H-M_alt    "P 1"
_space_group_IT_number       1

loop_
  _space_group_symop_operation_xyz
  'x, y, z'

loop_
  _atom_site_type_symbol
  _atom_site_label
  _atom_site_symmetry_multiplicity
  _atom_site_fract_x
  _atom_site_fract_y
  _atom_site_fract_z
  _atom_site_occupancy
  Nb  Nb1       1.0  0.6316560029813167  0.134928428912432  0.21085232496261597  1.0000
  Rh  Rh1       1.0  0.6684077909528209  0.7191677652316385  0.5018299490213395  1.0000
  As  As1       1.0  0.6310983502289592  0.39428518111858657  0.3470001101493836  1.0000
  He  He1       1.0  0.8948193724276995  0.446435231192252  0.3917098224163056  1.0000
  Ag  Ag1       1.0  0.5223218985864424  0.39444135732188834  0.32460159063339233  1.0000
  Mg  Mg1       1.0  0.7036512864150437  0.497920235973403  0.5176273882389069  1.0000
  V   V1        1.0  0.7563769458965488  0.6777153298865536  0.25768920183181765  1.0000
  Nb  Nb2       1.0  0.38402760703113115  0.4370392563948731  0.46023957682773475  1.0000
  Kr  Kr1       1.0  0.7182668360295076  0.46492884816218283  0.2629871726036072  1.0000
  Be  Be1       1.0  0.5968057954479069  0.15219137461617996  0.5873551845550538  1.0000
  K   K1        1.0  0.10518062757230046  0.37184542598928494  0.789147675037384  1.0000
  Ca  Ca1       1.0  0.5533912537611518  0.865071571087568  0.6397245526313782  1.0000
