data_image0
_chemical_formula_structural       V2SVS3VS4
_chemical_formula_sum              "V4 S8"
_cell_length_a       9.555460929870605
_cell_length_b       15.422208786010742
_cell_length_c       20.0
_cell_angle_alpha    90.0
_cell_angle_beta     90.0
_cell_angle_gamma    90.0

_space_group_name_H-M_alt    "P 1"
_space_group_IT_number       1

loop_
  _space_group_symop_operation_xyz
  'x, y, z'

loop_
  _atom_site_type_symbol
  _atom_site_label
  _atom_site_symmetry_multiplicity
  _atom_site_fract_x
  _atom_site_fract_y
  _atom_site_fract_z
  _atom_site_occupancy
  V   V1        1.0  0.010465184981436934  0.42676817865265243  0.6636457085609436  1.0000
  V   V2        1.0  0.7256670083626866  0.5062755643921494  0.2543344855308533  1.0000
  S   S1        1.0  0.7328569466707693  0.9935158506787124  0.6186087906360627  1.0000
  V   V3        1.0  0.7490800306238945  0.3170666000962937  0.535080635547638  1.0000
  S   S2        1.0  0.8516457997887547  0.848168471689267  0.7217030763626099  1.0000
  S   S3        1.0  0.6237736943700599  0.7372389814139295  0.4073033928871155  1.0000
  S   S4        1.0  0.9895348150185631  0.2229984643219203  0.5512770771980285  1.0000
  V   V4        1.0  0.9724734014549644  0.582291643348691  0.6628755807876587  1.0000
  S   S5        1.0  0.9297807942351547  0.5976852562413126  0.6611341655254365  1.0000
  S   S6        1.0  0.13642429004592688  0.006484149321287674  0.7456655144691468  1.0000
  S   S7        1.0  0.24357026963179368  0.5141955372724032  0.664661717414856  1.0000
  S   S8        1.0  0.8003320383084122  0.5088577027378437  0.5284193456172943  1.0000
