data_image0
_chemical_formula_structural       AsZrKScGaZnCoNbNRbBCl
_chemical_formula_sum              "As1 Zr1 K1 Sc1 Ga1 Zn1 Co1 Nb1 N1 Rb1 B1 Cl1"
_cell_length_a       18.626304626464844
_cell_length_b       24.46461296081543
_cell_length_c       20.0
_cell_angle_alpha    90.0
_cell_angle_beta     90.0
_cell_angle_gamma    90.0

_space_group_name_H-M_alt    "P 1"
_space_group_IT_number       1

loop_
  _space_group_symop_operation_xyz
  'x, y, z'

loop_
  _atom_site_type_symbol
  _atom_site_label
  _atom_site_symmetry_multiplicity
  _atom_site_fract_x
  _atom_site_fract_y
  _atom_site_fract_z
  _atom_site_occupancy
  As  As1       1.0  0.42002272939521673  0.3124081710930875  0.46531545221805576  1.0000
  Zr  Zr1       1.0  0.4273878050673654  0.8978115761560262  0.4835592091083527  1.0000
  K   K1        1.0  0.4306631588928752  0.17013149453128415  0.648626446723938  1.0000
  Sc  Sc1       1.0  0.33950073769541655  0.10218842384397368  0.46263091266155243  1.0000
  Ga  Ga1       1.0  0.6809846462277386  0.32476464454107246  0.588319742679596  1.0000
  Zn  Zn1       1.0  0.4336002316511065  0.49511216151432696  0.591983163356781  1.0000
  Co  Co1       1.0  0.7988564620234317  0.3813911954411892  0.49498570114374163  1.0000
  Nb  Nb1       1.0  0.8657812009116129  0.20070548457362072  0.6617499947547913  1.0000
  N   N1        1.0  0.13421879908838705  0.25295191526482314  0.5362226754426956  1.0000
  Rb  Rb1       1.0  0.4541341279567721  0.32076274024182583  0.4386867880821228  1.0000
  B   B1        1.0  0.2988428427160462  0.35516676632360356  0.5577778697013855  1.0000
  Cl  Cl1       1.0  0.3757071927760736  0.5311653047599958  0.33825000524520876  1.0000
