data_image0
_chemical_formula_structural       CdAsNiVMoAgCoCd2RbCdV
_chemical_formula_sum              "Cd4 As1 Ni1 V2 Mo1 Ag1 Co1 Rb1"
_cell_length_a       13.283487319946289
_cell_length_b       20.000125885009766
_cell_length_c       20.0
_cell_angle_alpha    90.0
_cell_angle_beta     90.0
_cell_angle_gamma    90.0

_space_group_name_H-M_alt    "P 1"
_space_group_IT_number       1

loop_
  _space_group_symop_operation_xyz
  'x, y, z'

loop_
  _atom_site_type_symbol
  _atom_site_label
  _atom_site_symmetry_multiplicity
  _atom_site_fract_x
  _atom_site_fract_y
  _atom_site_fract_z
  _atom_site_occupancy
  Cd  Cd1       1.0  0.8117964190746245  0.5584079105928327  0.5462601304054261  1.0000
  As  As1       1.0  0.47931085289372066  0.5556963633575457  0.4541461765766144  1.0000
  Ni  Ni1       1.0  0.5721678031891744  0.51130911146151  0.6453030705451965  1.0000
  V   V1        1.0  0.21916096215696662  0.5447251067774728  0.2139170289039612  1.0000
  Mo  Mo1       1.0  0.18820358092537548  0.12499918938193329  0.32454384565353395  1.0000
  Ag  Ag1       1.0  0.6064631150212662  0.7408276777623432  0.7860829710960389  1.0000
  Co  Co1       1.0  0.7041768691883677  0.6725315857329695  0.6921976447105408  1.0000
  Cd  Cd2       1.0  0.6876085255628899  0.3749458077980695  0.4585047662258148  1.0000
  Cd  Cd3       1.0  0.7052592934424966  0.610097281558935  0.6382719635963441  1.0000
  Rb  Rb1       1.0  0.6897741705355241  0.5836867906257457  0.6092244029045105  1.0000
  Cd  Cd4       1.0  0.5498514008368018  0.8750008106180668  0.5418278396129609  1.0000
  V   V2        1.0  0.808913487258652  0.8343383845011352  0.7675251126289369  1.0000
