data_image0
_chemical_formula_structural       TcAsCCuCoZnSrGaRuLi2N
_chemical_formula_sum              "Tc1 As1 C1 Cu1 Co1 Zn1 Sr1 Ga1 Ru1 Li2 N1"
_cell_length_a       13.658356666564941
_cell_length_b       15.104720115661621
_cell_length_c       20.0
_cell_angle_alpha    90.0
_cell_angle_beta     90.0
_cell_angle_gamma    90.0

_space_group_name_H-M_alt    "P 1"
_space_group_IT_number       1

loop_
  _space_group_symop_operation_xyz
  'x, y, z'

loop_
  _atom_site_type_symbol
  _atom_site_label
  _atom_site_symmetry_multiplicity
  _atom_site_fract_x
  _atom_site_fract_y
  _atom_site_fract_z
  _atom_site_occupancy
  Tc  Tc1       1.0  0.8169618658934877  0.675125692563166  0.4611642718315125  1.0000
  As  As1       1.0  0.525523010772021  0.4048320678157397  0.3863633871078491  1.0000
  C   C1        1.0  0.5035289235135886  0.36627431022751156  0.39166414737701416  1.0000
  Cu  Cu1       1.0  0.6225103818821973  0.5848007817622523  0.7192405462265015  1.0000
  Co  Co1       1.0  0.5897290848058819  0.7643569947230305  0.1931173086166382  1.0000
  Zn  Zn1       1.0  0.7247868812110189  0.6180127224594684  0.6760403275489808  1.0000
  Sr  Sr1       1.0  0.6996221850218112  0.8344888233044565  0.6893057107925415  1.0000
  Ga  Ga1       1.0  0.25275794984228617  0.3980531834970941  0.5268147200345993  1.0000
  Ru  Ru1       1.0  0.445160978087639  0.6170410441756063  0.42336214780807496  1.0000
  Li  Li1       1.0  0.18303813410651226  0.5488090230689915  0.494710910320282  1.0000
  Li  Li2       1.0  0.6588510193358738  0.7030099447250099  0.27239179611206055  1.0000
  N   N1        1.0  0.35600809428965935  0.16551117669554344  0.8068826913833619  1.0000
