data_image0
_chemical_formula_structural       BNCrHZnVNScBGeHeSc
_chemical_formula_sum              "B2 N2 Cr1 H1 Zn1 V1 Sc2 Ge1 He1"
_cell_length_a       14.855286598205566
_cell_length_b       21.148826599121094
_cell_length_c       20.0
_cell_angle_alpha    90.0
_cell_angle_beta     90.0
_cell_angle_gamma    90.0

_space_group_name_H-M_alt    "P 1"
_space_group_IT_number       1

loop_
  _space_group_symop_operation_xyz
  'x, y, z'

loop_
  _atom_site_type_symbol
  _atom_site_label
  _atom_site_symmetry_multiplicity
  _atom_site_fract_x
  _atom_site_fract_y
  _atom_site_fract_z
  _atom_site_occupancy
  B   B1        1.0  0.8164047370923747  0.29846179467925726  0.4396964177489281  1.0000
  N   N1        1.0  0.16829025703899822  0.46146780221383765  0.6047152638435365  1.0000
  Cr  Cr1       1.0  0.1916955202952167  0.23158469963589715  0.2927073836326599  1.0000
  H   H1        1.0  0.428512390818274  0.3235963682968984  0.5064086437225342  1.0000
  Zn  Zn1       1.0  0.3455691062860594  0.8817901094833765  0.4864971682429314  1.0000
  V   V1        1.0  0.4911069579518951  0.13683746846612524  0.6908678174018861  1.0000
  N   N2        1.0  0.3942650773128949  0.2940873770616291  0.6409727573394776  1.0000
  Sc  Sc1       1.0  0.7383400236902126  0.5606640750839009  0.7072926163673401  1.0000
  B   B2        1.0  0.6267780097666436  0.2613183184350468  0.31314365863800053  1.0000
  Ge  Ge1       1.0  0.3079135953312781  0.36328096534736953  0.37999176383018496  1.0000
  He  He1       1.0  0.2986480615330512  0.3027847944494608  0.6223835706710816  1.0000
  Sc  Sc2       1.0  0.8317097429610019  0.11820989051662344  0.6214681625366212  1.0000
