data_image0
_chemical_formula_structural       InCSMgFRhCrClArGeCCr
_chemical_formula_sum              "In1 C2 S1 Mg1 F1 Rh1 Cr2 Cl1 Ar1 Ge1"
_cell_length_a       22.10838508605957
_cell_length_b       16.299455642700195
_cell_length_c       20.0
_cell_angle_alpha    90.0
_cell_angle_beta     90.0
_cell_angle_gamma    90.0

_space_group_name_H-M_alt    "P 1"
_space_group_IT_number       1

loop_
  _space_group_symop_operation_xyz
  'x, y, z'

loop_
  _atom_site_type_symbol
  _atom_site_label
  _atom_site_symmetry_multiplicity
  _atom_site_fract_x
  _atom_site_fract_y
  _atom_site_fract_z
  _atom_site_occupancy
  In  In1       1.0  0.4158683493558152  0.8466206299632946  0.809148919582367  1.0000
  C   C1        1.0  0.6751223949870078  0.28766623010718134  0.4122510254383087  1.0000
  S   S1        1.0  0.7403099978509488  0.4408457103891016  0.8528177618980408  1.0000
  Mg  Mg1       1.0  0.11307927868485305  0.6951425726358414  0.5774794340133668  1.0000
  F   F1        1.0  0.4801817684613302  0.7441415673242247  0.362918758392334  1.0000
  Rh  Rh1       1.0  0.30936189222115024  0.6836152198163993  0.6459078073501587  1.0000
  Cr  Cr1       1.0  0.4658474731306036  0.3475464782556749  0.14718223810195924  1.0000
  Cl  Cl1       1.0  0.1795779452118731  0.7666537428754346  0.4470197379589081  1.0000
  Ar  Ar1       1.0  0.42852210565878607  0.1533793700367054  0.21354578733444216  1.0000
  Ge  Ge1       1.0  0.37107720486325746  0.597576062162451  0.30117146968841557  1.0000
  C   C2        1.0  0.886920721315147  0.5604438051167565  0.3921130895614624  1.0000
  Cr  Cr2       1.0  0.334993891034729  0.6946948573238022  0.7160118937492371  1.0000
