data_image0
_chemical_formula_structural       Se4PtSePtSe2Pt2Se
_chemical_formula_sum              "Se8 Pt4"
_cell_length_a       13.91512393951416
_cell_length_b       12.300990104675293
_cell_length_c       20.0
_cell_angle_alpha    90.0
_cell_angle_beta     90.0
_cell_angle_gamma    90.0

_space_group_name_H-M_alt    "P 1"
_space_group_IT_number       1

loop_
  _space_group_symop_operation_xyz
  'x, y, z'

loop_
  _atom_site_type_symbol
  _atom_site_label
  _atom_site_symmetry_multiplicity
  _atom_site_fract_x
  _atom_site_fract_y
  _atom_site_fract_z
  _atom_site_occupancy
  Se  Se1       1.0  0.007186418537646156  0.8361005558543408  0.351214537024498  1.0000
  Se  Se2       1.0  0.07222036225594225  0.7026271535120726  0.19750986695289613  1.0000
  Se  Se3       1.0  0.13333769673426854  0.9020334149886773  0.2066724717617035  1.0000
  Se  Se4       1.0  0.9928135814623539  0.5083953253310476  0.24341366887092591  1.0000
  Pt  Pt1       1.0  0.4074542729574572  0.9918706002229867  0.5214011967182159  1.0000
  Se  Se5       1.0  0.4295194931795589  0.8391557893876685  0.29918294548988345  1.0000
  Pt  Pt2       1.0  0.4641401218828098  0.008129399777013229  0.8024901330471039  1.0000
  Se  Se6       1.0  0.9810056359833912  0.41203786956847693  0.4953919112682343  1.0000
  Se  Se7       1.0  0.5191716814365503  0.4083198711976557  0.5481278836727143  1.0000
  Pt  Pt3       1.0  0.30282499084199815  0.41306620436308866  0.7644658505916596  1.0000
  Pt  Pt4       1.0  0.08777604650517286  0.8491843407187009  0.352090060710907  1.0000
  Se  Se8       1.0  0.7317305145306392  0.8231294970749751  0.28970866799354555  1.0000
