data_image0
_chemical_formula_structural       C12
_chemical_formula_sum              "C12"
_cell_length_a       12.006413459777832
_cell_length_b       7.787166595458984
_cell_length_c       20.0
_cell_angle_alpha    90.0
_cell_angle_beta     90.0
_cell_angle_gamma    90.0

_space_group_name_H-M_alt    "P 1"
_space_group_IT_number       1

loop_
  _space_group_symop_operation_xyz
  'x, y, z'

loop_
  _atom_site_type_symbol
  _atom_site_label
  _atom_site_symmetry_multiplicity
  _atom_site_fract_x
  _atom_site_fract_y
  _atom_site_fract_z
  _atom_site_occupancy
  C   C1        1.0  0.39803043963856943  0.012841629032423989  0.33734313249588016  1.0000
  C   C2        1.0  0.4842746309921406  0.5728450997595229  0.22395666837692263  1.0000
  C   C3        1.0  0.48020487753141733  0.45674363714319727  0.539263166487217  1.0000
  C   C4        1.0  0.9916711061645384  0.02339424986001972  0.6150571823120118  1.0000
  C   C5        1.0  0.5911654958756952  0.18299944424278142  0.7760433316230775  1.0000
  C   C6        1.0  0.06707514680526531  0.2465662044868149  0.5774790197610855  1.0000
  C   C7        1.0  0.4533304206864741  0.5282765059942911  0.32393597364425664  1.0000
  C   C8        1.0  0.43725031299552164  0.3323570363389046  0.41176503896713257  1.0000
  C   C9        1.0  0.008328893835461659  0.8157478363678314  0.4368618786334992  1.0000
  C   C10       1.0  0.3756263186937002  0.3256849358687032  0.4841919600963593  1.0000
  C   C11       1.0  0.660031520368697  0.987158370967576  0.5192716106772423  1.0000
  C   C12       1.0  0.5618699728991392  0.1335636731461737  0.4310512661933899  1.0000
