data_image0
_chemical_formula_structural       MgSeMoRuCrOYZnRhKrHe2
_chemical_formula_sum              "Mg1 Se1 Mo1 Ru1 Cr1 O1 Y1 Zn1 Rh1 Kr1 He2"
_cell_length_a       21.476497650146484
_cell_length_b       15.363134384155273
_cell_length_c       20.0
_cell_angle_alpha    90.0
_cell_angle_beta     90.0
_cell_angle_gamma    90.0

_space_group_name_H-M_alt    "P 1"
_space_group_IT_number       1

loop_
  _space_group_symop_operation_xyz
  'x, y, z'

loop_
  _atom_site_type_symbol
  _atom_site_label
  _atom_site_symmetry_multiplicity
  _atom_site_fract_x
  _atom_site_fract_y
  _atom_site_fract_z
  _atom_site_occupancy
  Mg  Mg1       1.0  0.32374457364960696  0.6515252510116134  0.4236318409442902  1.0000
  Se  Se1       1.0  0.6826409851978753  0.16272721031317464  0.6478651344776154  1.0000
  Mo  Mo1       1.0  0.32131933750123226  0.3224368527619937  0.28841468691825867  1.0000
  Ru  Ru1       1.0  0.19996805025280043  0.30122540459882646  0.579836854338646  1.0000
  Cr  Cr1       1.0  0.4973110590974852  0.5779818868644135  0.5302637755870819  1.0000
  O   O1        1.0  0.16249548174179632  0.298724506676655  0.4896124839782715  1.0000
  Y   Y1        1.0  0.2882654506668372  0.5603499062721958  0.4291853249073029  1.0000
  Zn  Zn1       1.0  0.22508584690587013  0.1693121487845554  0.5454469412565232  1.0000
  Rh  Rh1       1.0  0.8835936826979353  0.8372727896868253  0.7115853130817413  1.0000
  Kr  Kr1       1.0  0.11640631730206477  0.31895513083219534  0.49090280532836916  1.0000
  He  He1       1.0  0.33280730594580576  0.45650454952923797  0.5566858254373074  1.0000
  He  He2       1.0  0.5713264007488541  0.6122544867243463  0.5872029736638069  1.0000
