data_image0
_chemical_formula_structural       VCrClRbSNiFeTcNeRbBeY
_chemical_formula_sum              "V1 Cr1 Cl1 Rb2 S1 Ni1 Fe1 Tc1 Ne1 Be1 Y1"
_cell_length_a       17.201988220214844
_cell_length_b       16.79018211364746
_cell_length_c       20.0
_cell_angle_alpha    90.0
_cell_angle_beta     90.0
_cell_angle_gamma    90.0

_space_group_name_H-M_alt    "P 1"
_space_group_IT_number       1

loop_
  _space_group_symop_operation_xyz
  'x, y, z'

loop_
  _atom_site_type_symbol
  _atom_site_label
  _atom_site_symmetry_multiplicity
  _atom_site_fract_x
  _atom_site_fract_y
  _atom_site_fract_z
  _atom_site_occupancy
  V   V1        1.0  0.5965422518704271  0.5783731943857989  0.3817452609539032  1.0000
  Cr  Cr1       1.0  0.8048562967828522  0.21267591237923994  0.44354039430618286  1.0000
  Cl  Cl1       1.0  0.6453461193711445  0.8511034755513842  0.6980943739414216  1.0000
  Rb  Rb1       1.0  0.1453320376688862  0.591152320016231  0.4640262365341187  1.0000
  S   S1        1.0  0.3415062138006004  0.37661226152862737  0.5545648083090783  1.0000
  Ni  Ni1       1.0  0.5378763106239458  0.7163633373399716  0.4402843594551087  1.0000
  Fe  Fe1       1.0  0.8546679623311139  0.33805291920574726  0.6945018589496613  1.0000
  Tc  Tc1       1.0  0.23209309202691802  0.21856022924741428  0.3019056260585785  1.0000
  Ne  Ne1       1.0  0.6788521577603042  0.18751488857467394  0.3330120384693146  1.0000
  Rb  Rb2       1.0  0.22361563006858123  0.24300112031376964  0.4915080040693283  1.0000
  Be  Be1       1.0  0.6866681816508545  0.28265386053286357  0.6863239109516144  1.0000
  Y   Y1        1.0  0.6018215665927026  0.14889652444861579  0.5675749778747559  1.0000
