data_image0
_chemical_formula_structural       N3BN2BNB4
_chemical_formula_sum              "N6 B6"
_cell_length_a       14.6526460647583
_cell_length_b       18.177427291870117
_cell_length_c       20.0
_cell_angle_alpha    90.0
_cell_angle_beta     90.0
_cell_angle_gamma    90.0

_space_group_name_H-M_alt    "P 1"
_space_group_IT_number       1

loop_
  _space_group_symop_operation_xyz
  'x, y, z'

loop_
  _atom_site_type_symbol
  _atom_site_label
  _atom_site_symmetry_multiplicity
  _atom_site_fract_x
  _atom_site_fract_y
  _atom_site_fract_z
  _atom_site_occupancy
  N   N1        1.0  0.6167817638070521  0.4147108111083002  0.5336418926715851  1.0000
  N   N2        1.0  0.27459462655683625  0.9399286001867536  0.5619117163121701  1.0000
  N   N3        1.0  0.3712964091111063  0.9944986635652301  0.6390278816223145  1.0000
  B   B1        1.0  0.9931752843405082  0.4746149663905517  0.7803337454795838  1.0000
  N   N4        1.0  0.3488725374669374  0.5654927668412659  0.6131129503250122  1.0000
  N   N5        1.0  0.7002800725286413  0.940471531730633  0.21966625452041627  1.0000
  B   B2        1.0  0.00682471565949184  0.9910222437980624  0.6593122243881226  1.0000
  N   N6        1.0  0.5061708314613126  0.5803023481021976  0.5371420204639435  1.0000
  B   B3        1.0  0.4840081589840107  0.7939776190065967  0.5977923154830933  1.0000
  B   B4        1.0  0.3459173318238712  0.7850180287269731  0.40872322320938115  1.0000
  B   B5        1.0  0.44549115299751446  0.9304741885459571  0.5467822670936585  1.0000
  B   B6        1.0  0.45206036345156825  0.00550133643476999  0.5547010242938996  1.0000
