data_image0
_chemical_formula_structural       P12
_chemical_formula_sum              "P12"
_cell_length_a       7.814104080200195
_cell_length_b       11.903828620910645
_cell_length_c       20.0
_cell_angle_alpha    90.0
_cell_angle_beta     90.0
_cell_angle_gamma    90.0

_space_group_name_H-M_alt    "P 1"
_space_group_IT_number       1

loop_
  _space_group_symop_operation_xyz
  'x, y, z'

loop_
  _atom_site_type_symbol
  _atom_site_label
  _atom_site_symmetry_multiplicity
  _atom_site_fract_x
  _atom_site_fract_y
  _atom_site_fract_z
  _atom_site_occupancy
  P   P1        1.0  0.7922292520627477  0.44761054963123503  0.5399823248386383  1.0000
  P   P2        1.0  0.39703214318056274  0.008400650565222802  0.3325490474700928  1.0000
  P   P3        1.0  0.17017372348597368  0.9110252875544912  0.6923785448074341  1.0000
  P   P4        1.0  0.2512273938627347  0.439634965064686  0.6508329629898072  1.0000
  P   P5        1.0  0.9872026550456803  0.33972963536734174  0.7798314571380616  1.0000
  P   P6        1.0  0.7130532157372137  0.8346343062195859  0.6122858285903932  1.0000
  P   P7        1.0  0.8197768185902259  0.8294716605075649  0.539272153377533  1.0000
  P   P8        1.0  0.5910488257904077  0.5612170346118099  0.2201685428619385  1.0000
  P   P9        1.0  0.8709972055298215  0.9915993494347772  0.30695319175720215  1.0000
  P   P10       1.0  0.3149849634144942  0.7963721198785234  0.5686105012893677  1.0000
  P   P11       1.0  0.012797344954319681  0.6157501713057347  0.33668609857559206  1.0000
  P   P12       1.0  0.5202245309251688  0.36522210380346404  0.23181774616241457  1.0000
