data_image0
_chemical_formula_structural       LiNeBrAsCaFLiFTiLiNeRh
_chemical_formula_sum              "Li3 Ne2 Br1 As1 Ca1 F2 Ti1 Rh1"
_cell_length_a       21.22037124633789
_cell_length_b       19.715116500854492
_cell_length_c       20.0
_cell_angle_alpha    90.0
_cell_angle_beta     90.0
_cell_angle_gamma    90.0

_space_group_name_H-M_alt    "P 1"
_space_group_IT_number       1

loop_
  _space_group_symop_operation_xyz
  'x, y, z'

loop_
  _atom_site_type_symbol
  _atom_site_label
  _atom_site_symmetry_multiplicity
  _atom_site_fract_x
  _atom_site_fract_y
  _atom_site_fract_z
  _atom_site_occupancy
  Li  Li1       1.0  0.47291560923172943  0.5279539264593017  0.4636704698204994  1.0000
  Ne  Ne1       1.0  0.24383351582559334  0.8731937495833898  0.6764012575149536  1.0000
  Br  Br1       1.0  0.5382134365776329  0.7610054526726377  0.4014354646205902  1.0000
  As  As1       1.0  0.814200281225636  0.29679552811380444  0.293254554271698  1.0000
  Ca  Ca1       1.0  0.24487146115269792  0.12680625041661028  0.3347097158432007  1.0000
  F   F1        1.0  0.32558632192497544  0.6892826263769424  0.48775963187217714  1.0000
  Li  Li2       1.0  0.8821886999929711  0.5511099537662971  0.11522767543792725  1.0000
  F   F2        1.0  0.47421228250359126  0.5631982908167535  0.8847723245620728  1.0000
  Ti  Ti1       1.0  0.6476839062679485  0.3586191078246883  0.4243368670344353  1.0000
  Li  Li3       1.0  0.11781130000702884  0.1350304637040424  0.17190163135528566  1.0000
  Ne  Ne2       1.0  0.25154327825968  0.43811529036550834  0.4369178980588913  1.0000
  Rh  Rh1       1.0  0.4904811867887228  0.6998719766913023  0.6053513407707215  1.0000
