data_image0
_chemical_formula_structural       CBTiMnCoSiCrAsScAgScPd
_chemical_formula_sum              "C1 B1 Ti1 Mn1 Co1 Si1 Cr1 As1 Sc2 Ag1 Pd1"
_cell_length_a       19.916744232177734
_cell_length_b       14.741386413574219
_cell_length_c       20.0
_cell_angle_alpha    90.0
_cell_angle_beta     90.0
_cell_angle_gamma    90.0

_space_group_name_H-M_alt    "P 1"
_space_group_IT_number       1

loop_
  _space_group_symop_operation_xyz
  'x, y, z'

loop_
  _atom_site_type_symbol
  _atom_site_label
  _atom_site_symmetry_multiplicity
  _atom_site_fract_x
  _atom_site_fract_y
  _atom_site_fract_z
  _atom_site_occupancy
  C   C1        1.0  0.5501915142150389  0.24226003372868926  0.3933572769165039  1.0000
  B   B1        1.0  0.6309309612712373  0.2556378588363525  0.4935778536833823  1.0000
  Ti  Ti1       1.0  0.3880812761980098  0.8304094222700438  0.15240007638931274  1.0000
  Mn  Mn1       1.0  0.8744774523539782  0.3740782123121878  0.26939574480056766  1.0000
  Co  Co1       1.0  0.5144975324072434  0.16959057772995623  0.3578174471855164  1.0000
  Si  Si1       1.0  0.7072584468081642  0.6424316757263675  0.38952925205230715  1.0000
  Cr  Cr1       1.0  0.5870866316769312  0.43900590274704826  0.4947250634431839  1.0000
  As  As1       1.0  0.5663349708535919  0.23740923802248545  0.5988400220870972  1.0000
  Sc  Sc1       1.0  0.5081844457501884  0.3811785280560899  0.24905549287796022  1.0000
  Ag  Ag1       1.0  0.36939983872991183  0.38661667754814116  0.34461852312088015  1.0000
  Sc  Sc2       1.0  0.46531851261382995  0.5553992071403174  0.677379310131073  1.0000
  Pd  Pd1       1.0  0.12552254764602172  0.7724639533367181  0.8475999236106873  1.0000
