data_image0
_chemical_formula_structural       CdAsNbBrKONiCrMoHFeLi
_chemical_formula_sum              "Cd1 As1 Nb1 Br1 K1 O1 Ni1 Cr1 Mo1 H1 Fe1 Li1"
_cell_length_a       23.028121948242188
_cell_length_b       16.670669555664062
_cell_length_c       20.0
_cell_angle_alpha    90.0
_cell_angle_beta     90.0
_cell_angle_gamma    90.0

_space_group_name_H-M_alt    "P 1"
_space_group_IT_number       1

loop_
  _space_group_symop_operation_xyz
  'x, y, z'

loop_
  _atom_site_type_symbol
  _atom_site_label
  _atom_site_symmetry_multiplicity
  _atom_site_fract_x
  _atom_site_fract_y
  _atom_site_fract_z
  _atom_site_occupancy
  Cd  Cd1       1.0  0.41711975067768997  0.33806482482387196  0.8744432806968689  1.0000
  As  As1       1.0  0.398196561638807  0.7051775770940635  0.6750687837600708  1.0000
  Nb  Nb1       1.0  0.6228364260080534  0.8500360316522491  0.6066719353199006  1.0000
  Br  Br1       1.0  0.3663150373615714  0.14996396834775097  0.31818841695785527  1.0000
  K   K1        1.0  0.5235139440792329  0.26485413945533715  0.4561664402484894  1.0000
  O   O1        1.0  0.4187930410139077  0.3042040531647215  0.35254764556884766  1.0000
  Ni  Ni1       1.0  0.42674389045790706  0.7542342554522581  0.12555671930313111  1.0000
  Cr  Cr1       1.0  0.4552810956261335  0.4174459985730356  0.3379860877990723  1.0000
  Mo  Mo1       1.0  0.5390369996590844  0.3040428160259362  0.6111183166503906  1.0000
  H   H1        1.0  0.8914370869835162  0.5642734798115199  0.597882217168808  1.0000
  Fe  Fe1       1.0  0.7438951790420039  0.39099381172032965  0.7952393651008607  1.0000
  Li  Li1       1.0  0.1085629130164839  0.38156522189571174  0.19298919439315798  1.0000
