data_image0
_chemical_formula_structural       RbRuPNCoKHClBeAsInN
_chemical_formula_sum              "Rb1 Ru1 P1 N2 Co1 K1 H1 Cl1 Be1 As1 In1"
_cell_length_a       19.677162170410156
_cell_length_b       20.024137496948242
_cell_length_c       20.0
_cell_angle_alpha    90.0
_cell_angle_beta     90.0
_cell_angle_gamma    90.0

_space_group_name_H-M_alt    "P 1"
_space_group_IT_number       1

loop_
  _space_group_symop_operation_xyz
  'x, y, z'

loop_
  _atom_site_type_symbol
  _atom_site_label
  _atom_site_symmetry_multiplicity
  _atom_site_fract_x
  _atom_site_fract_y
  _atom_site_fract_z
  _atom_site_occupancy
  Rb  Rb1       1.0  0.3207106455677798  0.6648908430463074  0.22949318885803224  1.0000
  Ru  Ru1       1.0  0.4145395725294431  0.2560934674424663  0.808640718460083  1.0000
  P   P1        1.0  0.7756108660883051  0.484982983145551  0.7619840145111084  1.0000
  N   N1        1.0  0.7585871661900838  0.36488093678902955  0.48917647004127507  1.0000
  Co  Co1       1.0  0.5130689225088451  0.1427055655544194  0.5902499914169311  1.0000
  K   K1        1.0  0.42130649323898606  0.45133268926785614  0.6706375479698181  1.0000
  H   H1        1.0  0.6652416638394805  0.32111342521704467  0.5882265210151673  1.0000
  Cl  Cl1       1.0  0.8729491591140406  0.5217672262908258  0.3254485249519348  1.0000
  Be  Be1       1.0  0.42587961033296173  0.8751506775070332  0.29969407320022584  1.0000
  As  As1       1.0  0.1270508408859594  0.4450941404011939  0.4126367807388306  1.0000
  In  In1       1.0  0.5842075740318906  0.3692782672431981  0.191359281539917  1.0000
  N   N2        1.0  0.6970154122037513  0.12484932249296679  0.5463377714157105  1.0000
