data_image0
_chemical_formula_structural       CHeNbZnScPCuCaInKPdNa
_chemical_formula_sum              "C1 He1 Nb1 Zn1 Sc1 P1 Cu1 Ca1 In1 K1 Pd1 Na1"
_cell_length_a       14.427739143371582
_cell_length_b       13.494368553161621
_cell_length_c       20.0
_cell_angle_alpha    90.0
_cell_angle_beta     90.0
_cell_angle_gamma    90.0

_space_group_name_H-M_alt    "P 1"
_space_group_IT_number       1

loop_
  _space_group_symop_operation_xyz
  'x, y, z'

loop_
  _atom_site_type_symbol
  _atom_site_label
  _atom_site_symmetry_multiplicity
  _atom_site_fract_x
  _atom_site_fract_y
  _atom_site_fract_z
  _atom_site_occupancy
  C   C1        1.0  0.5252805682833044  0.35771261624929307  0.510852313041687  1.0000
  He  He1       1.0  0.8267226780885796  0.2618389683552592  0.5536158621311188  1.0000
  Nb  Nb1       1.0  0.7130226721197448  0.3856691520367925  0.21891615390777588  1.0000
  Zn  Zn1       1.0  0.6838457866603617  0.814737542483603  0.7810838460922241  1.0000
  Sc  Sc1       1.0  0.6384068319923726  0.4479121068488893  0.4053526043891907  1.0000
  P   P1        1.0  0.7452655506818519  0.18526245751639717  0.5592879056930542  1.0000
  Cu  Cu1       1.0  0.7980123515880306  0.4657345308130371  0.247832989692688  1.0000
  Ca  Ca1       1.0  0.36796767324047114  0.7512518223664372  0.48226054161787035  1.0000
  In  In1       1.0  0.6438579360152813  0.6445584291899199  0.6244030237197876  1.0000
  K   K1        1.0  0.17327732191142053  0.5544475723488929  0.42085230946540836  1.0000
  Pd  Pd1       1.0  0.4357146747603097  0.5203663915027918  0.27554304599761964  1.0000
  Na  Na1       1.0  0.5925235279832259  0.8102893747229216  0.45552121549844743  1.0000
