data_image0
_chemical_formula_structural       Se7W3SeW
_chemical_formula_sum              "Se8 W4"
_cell_length_a       11.142019271850586
_cell_length_b       12.196520805358887
_cell_length_c       20.0
_cell_angle_alpha    90.0
_cell_angle_beta     90.0
_cell_angle_gamma    90.0

_space_group_name_H-M_alt    "P 1"
_space_group_IT_number       1

loop_
  _space_group_symop_operation_xyz
  'x, y, z'

loop_
  _atom_site_type_symbol
  _atom_site_label
  _atom_site_symmetry_multiplicity
  _atom_site_fract_x
  _atom_site_fract_y
  _atom_site_fract_z
  _atom_site_occupancy
  Se  Se1       1.0  0.25227984429680295  0.991800967848958  0.605968064069748  1.0000
  Se  Se2       1.0  0.40308335759883335  0.1822192569086242  0.22194494009017945  1.0000
  Se  Se3       1.0  0.540697170069229  0.6001751390787333  0.5733008425682783  1.0000
  Se  Se4       1.0  0.44332381629296086  0.4795545250328427  0.4027661204338074  1.0000
  Se  Se5       1.0  0.852147590902329  0.540860921638076  0.5464497089385987  1.0000
  Se  Se6       1.0  0.6720051876707466  0.8464510145806009  0.3433035254478455  1.0000
  Se  Se7       1.0  0.6747864293629156  0.8151370801375152  0.5626981750130654  1.0000
  W   W1        1.0  0.9488111574052914  0.6154005042153873  0.49642407298088076  1.0000
  W   W2        1.0  0.41325355504553785  0.5648035556630439  0.7780550599098206  1.0000
  W   W3        1.0  0.8186559155522939  0.506365467339105  0.2469239115715027  1.0000
  Se  Se8       1.0  0.9910249747202278  0.008199032151041924  0.44889535903930666  1.0000
  W   W4        1.0  0.008975025279772227  0.8130920576224263  0.6934694886207581  1.0000
