data_image0
_chemical_formula_structural       ArCoAlHeVZnClAsInVMgGa
_chemical_formula_sum              "Ar1 Co1 Al1 He1 V2 Zn1 Cl1 As1 In1 Mg1 Ga1"
_cell_length_a       15.506742477416992
_cell_length_b       16.34145736694336
_cell_length_c       20.0
_cell_angle_alpha    90.0
_cell_angle_beta     90.0
_cell_angle_gamma    90.0

_space_group_name_H-M_alt    "P 1"
_space_group_IT_number       1

loop_
  _space_group_symop_operation_xyz
  'x, y, z'

loop_
  _atom_site_type_symbol
  _atom_site_label
  _atom_site_symmetry_multiplicity
  _atom_site_fract_x
  _atom_site_fract_y
  _atom_site_fract_z
  _atom_site_occupancy
  Ar  Ar1       1.0  0.16122019971958176  0.5588100136793955  0.24032257795333864  1.0000
  Co  Co1       1.0  0.6335387195312079  0.43760637422484394  0.4856590956449509  1.0000
  Al  Al1       1.0  0.7258054013905784  0.42257287021031487  0.6676689505577088  1.0000
  He  He1       1.0  0.3406243269525618  0.5030725606147791  0.42577453255653386  1.0000
  V   V1        1.0  0.5691210157667301  0.21372194673439446  0.601834785938263  1.0000
  Zn  Zn1       1.0  0.7425237613805366  0.1529851385388958  0.5425315380096436  1.0000
  Cl  Cl1       1.0  0.5767306929596486  0.15398448141434679  0.3740112900733948  1.0000
  As  As1       1.0  0.7533997313529806  0.8470148614611042  0.3401188611984253  1.0000
  In  In1       1.0  0.5109055133340116  0.17456029993125285  0.7596774220466614  1.0000
  V   V2        1.0  0.731322622241405  0.3107304944599615  0.5319796025753022  1.0000
  Mg  Mg1       1.0  0.8387798002804183  0.15517964857259242  0.5713694751262665  1.0000
  Ga  Ga1       1.0  0.6573152561273379  0.4910089560940423  0.4340768486261368  1.0000
