data_image0
_chemical_formula_structural       CdSrKrNLiMgHeCoTiGa2Ni
_chemical_formula_sum              "Cd1 Sr1 Kr1 N1 Li1 Mg1 He1 Co1 Ti1 Ga2 Ni1"
_cell_length_a       12.254229545593262
_cell_length_b       21.86653709411621
_cell_length_c       20.0
_cell_angle_alpha    90.0
_cell_angle_beta     90.0
_cell_angle_gamma    90.0

_space_group_name_H-M_alt    "P 1"
_space_group_IT_number       1

loop_
  _space_group_symop_operation_xyz
  'x, y, z'

loop_
  _atom_site_type_symbol
  _atom_site_label
  _atom_site_symmetry_multiplicity
  _atom_site_fract_x
  _atom_site_fract_y
  _atom_site_fract_z
  _atom_site_occupancy
  Cd  Cd1       1.0  0.4127372681532677  0.46633494131989717  0.47852963060140613  1.0000
  Sr  Sr1       1.0  0.33096370315368917  0.4214688868888747  0.6783774554729463  1.0000
  Kr  Kr1       1.0  0.5151534455722799  0.372568683057227  0.32162254452705386  1.0000
  N   N1        1.0  0.3696556735204531  0.7258809865842525  0.5180629819631577  1.0000
  Li  Li1       1.0  0.5957886872717371  0.36915366558089624  0.6353244006633759  1.0000
  Mg  Mg1       1.0  0.20401120363444747  0.5840805437685461  0.48984079249203205  1.0000
  He  He1       1.0  0.3127907654085286  0.6776492618909572  0.44675965011119845  1.0000
  Co  Co1       1.0  0.7959887963655525  0.885670043333415  0.5432953834533691  1.0000
  Ti  Ti1       1.0  0.5924176004325775  0.3605204994817418  0.5460780680179597  1.0000
  Ga  Ga1       1.0  0.7117127927479774  0.47022485230426675  0.4684906601905823  1.0000
  Ga  Ga2       1.0  0.4076574122663692  0.41093677097454084  0.37851577401161196  1.0000
  Ni  Ni1       1.0  0.3705710405182587  0.11432995666658496  0.6462384045124054  1.0000
