data_image0
_chemical_formula_structural       VZrFeMoRbPdAgZnKrNeMnBe
_chemical_formula_sum              "V1 Zr1 Fe1 Mo1 Rb1 Pd1 Ag1 Zn1 Kr1 Ne1 Mn1 Be1"
_cell_length_a       16.492408752441406
_cell_length_b       19.949918746948242
_cell_length_c       20.0
_cell_angle_alpha    90.0
_cell_angle_beta     90.0
_cell_angle_gamma    90.0

_space_group_name_H-M_alt    "P 1"
_space_group_IT_number       1

loop_
  _space_group_symop_operation_xyz
  'x, y, z'

loop_
  _atom_site_type_symbol
  _atom_site_label
  _atom_site_symmetry_multiplicity
  _atom_site_fract_x
  _atom_site_fract_y
  _atom_site_fract_z
  _atom_site_occupancy
  V   V1        1.0  0.757589248334523  0.5360082477150205  0.3678027927875519  1.0000
  Zr  Zr1       1.0  0.7319123541131882  0.6046652503469812  0.4380716592073441  1.0000
  Fe  Fe1       1.0  0.47823812350146394  0.2638127858465168  0.40793907046318056  1.0000
  Mo  Mo1       1.0  0.8484151368857651  0.6673089892512102  0.7703889012336731  1.0000
  Rb  Rb1       1.0  0.6201590605141434  0.12531380554123844  0.5082851052284241  1.0000
  Pd  Pd1       1.0  0.4473471032022124  0.5213695412917804  0.4711059004068375  1.0000
  Ag  Ag1       1.0  0.5440927876032814  0.8746861944587616  0.46032107137143613  1.0000
  Zn  Zn1       1.0  0.42765090544772083  0.4762407814991305  0.349709153175354  1.0000
  Kr  Kr1       1.0  0.151584863114235  0.13013580807807026  0.2296110987663269  1.0000
  Ne  Ne1       1.0  0.6720222442548502  0.16006352070456886  0.29398542642593384  1.0000
  Mn  Mn1       1.0  0.6753215390668333  0.3701715918050791  0.4276410222053528  1.0000
  Be  Be1       1.0  0.6682436954507417  0.4830758562034449  0.5140547215938568  1.0000
