data_image0
_chemical_formula_structural       PdSiBRbArZnSeCoTc2AgTi
_chemical_formula_sum              "Pd1 Si1 B1 Rb1 Ar1 Zn1 Se1 Co1 Tc2 Ag1 Ti1"
_cell_length_a       13.074028015136719
_cell_length_b       16.027076721191406
_cell_length_c       20.0
_cell_angle_alpha    90.0
_cell_angle_beta     90.0
_cell_angle_gamma    90.0

_space_group_name_H-M_alt    "P 1"
_space_group_IT_number       1

loop_
  _space_group_symop_operation_xyz
  'x, y, z'

loop_
  _atom_site_type_symbol
  _atom_site_label
  _atom_site_symmetry_multiplicity
  _atom_site_fract_x
  _atom_site_fract_y
  _atom_site_fract_z
  _atom_site_occupancy
  Pd  Pd1       1.0  0.4053395425976533  0.844013974382837  0.4534090578556061  1.0000
  Si  Si1       1.0  0.8087812051575624  0.589353372398071  0.4382570505142212  1.0000
  B   B1        1.0  0.5347232373621282  0.42627632701908197  0.4105748236179352  1.0000
  Rb  Rb1       1.0  0.8014088458099985  0.4815925731458213  0.43743935227394104  1.0000
  Ar  Ar1       1.0  0.41073912190665596  0.18382420320645346  0.22205587625503542  1.0000
  Zn  Zn1       1.0  0.6521702408587806  0.15598602561716304  0.5205086782574654  1.0000
  Se  Se1       1.0  0.539906605548193  0.551353088504742  0.38159548044204716  1.0000
  Co  Co1       1.0  0.6661619932056868  0.2780766396550485  0.47199592590332035  1.0000
  Tc  Tc1       1.0  0.7300902950533922  0.40031215324075153  0.4335934519767761  1.0000
  Tc  Tc2       1.0  0.32642004821318843  0.39595194577310144  0.7779441237449647  1.0000
  Ag  Ag1       1.0  0.19121879484243764  0.37696958806845904  0.3641311526298523  1.0000
  Ti  Ti1       1.0  0.5640270865100526  0.3691716181884047  0.5509506076574325  1.0000
