data_image0
_chemical_formula_structural       HNbHLiAlNiGaFeCoClAgH
_chemical_formula_sum              "H3 Nb1 Li1 Al1 Ni1 Ga1 Fe1 Co1 Cl1 Ag1"
_cell_length_a       13.006054878234863
_cell_length_b       14.004080772399902
_cell_length_c       20.0
_cell_angle_alpha    90.0
_cell_angle_beta     90.0
_cell_angle_gamma    90.0

_space_group_name_H-M_alt    "P 1"
_space_group_IT_number       1

loop_
  _space_group_symop_operation_xyz
  'x, y, z'

loop_
  _atom_site_type_symbol
  _atom_site_label
  _atom_site_symmetry_multiplicity
  _atom_site_fract_x
  _atom_site_fract_y
  _atom_site_fract_z
  _atom_site_occupancy
  H   H1        1.0  0.6201779560057801  0.395606505854569  0.4981366038322449  1.0000
  Nb  Nb1       1.0  0.8077818351986462  0.821480615441903  0.6317014649510384  1.0000
  H   H2        1.0  0.4999000574651244  0.8044144790815633  0.8502124667167664  1.0000
  Li  Li1       1.0  0.3842720440198838  0.25550405115162456  0.7123691141605377  1.0000
  Al  Al1       1.0  0.3198487780723585  0.46600854265321917  0.5362480461597443  1.0000
  Ni  Ni1       1.0  0.6641415488027903  0.7220738186924672  0.14978753328323366  1.0000
  Ga  Ga1       1.0  0.33777544782211427  0.7774749694283224  0.6596108376979828  1.0000
  Fe  Fe1       1.0  0.19221816480135376  0.39145501776960673  0.49176552295684817  1.0000
  Co  Co1       1.0  0.5777699113869743  0.6608668242767143  0.807735013961792  1.0000
  Cl  Cl1       1.0  0.4810016427091774  0.2844171254376175  0.4785446524620056  1.0000
  Ag  Ag1       1.0  0.21456478032403525  0.5978332755507005  0.5201350688934326  1.0000
  H   H3        1.0  0.5342678608051995  0.17851938455809702  0.5907412290573121  1.0000
