data_image0
_chemical_formula_structural       InSeOPLiH2CdCCdPSc
_chemical_formula_sum              "In1 Se1 O1 P2 Li1 H2 Cd2 C1 Sc1"
_cell_length_a       21.52825927734375
_cell_length_b       15.920757293701172
_cell_length_c       20.0
_cell_angle_alpha    90.0
_cell_angle_beta     90.0
_cell_angle_gamma    90.0

_space_group_name_H-M_alt    "P 1"
_space_group_IT_number       1

loop_
  _space_group_symop_operation_xyz
  'x, y, z'

loop_
  _atom_site_type_symbol
  _atom_site_label
  _atom_site_symmetry_multiplicity
  _atom_site_fract_x
  _atom_site_fract_y
  _atom_site_fract_z
  _atom_site_occupancy
  In  In1       1.0  0.46116110886073614  0.4529635247707517  0.5971192911267281  1.0000
  Se  Se1       1.0  0.490549106326495  0.6371609649149605  0.7955680191516876  1.0000
  O   O1        1.0  0.8573103252872684  0.4792561442577041  0.20443198084831238  1.0000
  P   P1        1.0  0.11612645707347775  0.7671993900368776  0.6446530908346176  1.0000
  Li  Li1       1.0  0.6383749462213547  0.8429722787490976  0.5887179151177406  1.0000
  H   H1        1.0  0.4595735202810169  0.5197126620719961  0.5354873657226563  1.0000
  H   H2        1.0  0.41200016204471546  0.6677734258473221  0.5749447882175446  1.0000
  Cd  Cd1       1.0  0.5727133788051936  0.5121686229238503  0.6869833827018739  1.0000
  C   C1        1.0  0.6393049313865995  0.5882447901279516  0.5539066314697266  1.0000
  Cd  Cd2       1.0  0.7580325095897867  0.15702772125090242  0.577875018119812  1.0000
  P   P2        1.0  0.8838735429265222  0.41832907794383223  0.7768326938152313  1.0000
  Sc  Sc1       1.0  0.6080214055620409  0.6370774493767987  0.7305391013622284  1.0000
