data_image0
_chemical_formula_structural       MgZrBNeCrBeArBTiZrCuN
_chemical_formula_sum              "Mg1 Zr2 B2 Ne1 Cr1 Be1 Ar1 Ti1 Cu1 N1"
_cell_length_a       18.117366790771484
_cell_length_b       14.603768348693848
_cell_length_c       20.0
_cell_angle_alpha    90.0
_cell_angle_beta     90.0
_cell_angle_gamma    90.0

_space_group_name_H-M_alt    "P 1"
_space_group_IT_number       1

loop_
  _space_group_symop_operation_xyz
  'x, y, z'

loop_
  _atom_site_type_symbol
  _atom_site_label
  _atom_site_symmetry_multiplicity
  _atom_site_fract_x
  _atom_site_fract_y
  _atom_site_fract_z
  _atom_site_occupancy
  Mg  Mg1       1.0  0.4002953938099857  0.4637568249808939  0.8069780945777894  1.0000
  Zr  Zr1       1.0  0.30074957220542814  0.17118869187099905  0.7676191210746766  1.0000
  B   B1        1.0  0.6466009676253153  0.33144775758577866  0.42823668718338015  1.0000
  Ne  Ne1       1.0  0.5609373220154551  0.23701347487954968  0.42344802618026733  1.0000
  Cr  Cr1       1.0  0.3880842459477163  0.828811308129001  0.5906595408916474  1.0000
  Be  Be1       1.0  0.5383545607154565  0.7832008035440886  0.7357845425605775  1.0000
  Ar  Ar1       1.0  0.6419938327466927  0.8172714960679901  0.18375476598739626  1.0000
  B   B2        1.0  0.5953757588655648  0.507189183539571  0.326915180683136  1.0000
  Ti  Ti1       1.0  0.13798912126878596  0.417949007229794  0.905700409412384  1.0000
  Zr  Zr2       1.0  0.862010878731214  0.751098450541988  0.5078519582748413  1.0000
  Cu  Cu1       1.0  0.4054875221056147  0.7189831511599728  0.7465312480926514  1.0000
  N   N1        1.0  0.2967591652894633  0.5770486740131577  0.09429959058761597  1.0000
