data_image0
_chemical_formula_structural       ScHeCrGaInRhYPdZrCdNCu
_chemical_formula_sum              "Sc1 He1 Cr1 Ga1 In1 Rh1 Y1 Pd1 Zr1 Cd1 N1 Cu1"
_cell_length_a       20.40359115600586
_cell_length_b       17.368810653686523
_cell_length_c       20.0
_cell_angle_alpha    90.0
_cell_angle_beta     90.0
_cell_angle_gamma    90.0

_space_group_name_H-M_alt    "P 1"
_space_group_IT_number       1

loop_
  _space_group_symop_operation_xyz
  'x, y, z'

loop_
  _atom_site_type_symbol
  _atom_site_label
  _atom_site_symmetry_multiplicity
  _atom_site_fract_x
  _atom_site_fract_y
  _atom_site_fract_z
  _atom_site_occupancy
  Sc  Sc1       1.0  0.47659922781868197  0.8560638485024421  0.7700944900512696  1.0000
  He  He1       1.0  0.5886570427015717  0.47446545420023745  0.22199215888977053  1.0000
  Cr  Cr1       1.0  0.23925007931865044  0.1439361514975579  0.524974399805069  1.0000
  Ga  Ga1       1.0  0.20628848263281457  0.4795269934668012  0.6832003951072694  1.0000
  In  In1       1.0  0.15881138595155925  0.7358910915009116  0.5493423491716385  1.0000
  Rh  Rh1       1.0  0.12252745023584327  0.7450648916311298  0.7116708755493164  1.0000
  Y   Y1        1.0  0.4582704790285601  0.5160881069547879  0.7776528835296631  1.0000
  Pd  Pd1       1.0  0.47875091564664846  0.15312186650961718  0.6668270468711853  1.0000
  Zr  Zr1       1.0  0.24008741223767588  0.7427029035743438  0.5886413216590881  1.0000
  Cd  Cd1       1.0  0.30638043991796854  0.18069682896126718  0.38908584117889405  1.0000
  N   N1        1.0  0.2513976581881246  0.6759555707782965  0.46036907434463503  1.0000
  Cu  Cu1       1.0  0.8774725497641567  0.2693480522572442  0.7780078411102296  1.0000
