data_image0
_chemical_formula_structural       PGeSClBNbSHeRhInZnGa
_chemical_formula_sum              "P1 Ge1 S2 Cl1 B1 Nb1 He1 Rh1 In1 Zn1 Ga1"
_cell_length_a       21.089977264404297
_cell_length_b       19.294326782226562
_cell_length_c       20.0
_cell_angle_alpha    90.0
_cell_angle_beta     90.0
_cell_angle_gamma    90.0

_space_group_name_H-M_alt    "P 1"
_space_group_IT_number       1

loop_
  _space_group_symop_operation_xyz
  'x, y, z'

loop_
  _atom_site_type_symbol
  _atom_site_label
  _atom_site_symmetry_multiplicity
  _atom_site_fract_x
  _atom_site_fract_y
  _atom_site_fract_z
  _atom_site_occupancy
  P   P1        1.0  0.6482732563839272  0.38093621809243855  0.42591974735260013  1.0000
  Ge  Ge1       1.0  0.6533585131057331  0.7128410907152625  0.6304178774356842  1.0000
  S   S1        1.0  0.8814603025968005  0.5327047689933129  0.6444771647453309  1.0000
  Cl  Cl1       1.0  0.6817199372048423  0.8704282213815558  0.24431917667388917  1.0000
  B   B1        1.0  0.6101891469100467  0.3377394426373675  0.5826100230216981  1.0000
  Nb  Nb1       1.0  0.11853969740319946  0.5233988560291026  0.6550177335739136  1.0000
  S   S2        1.0  0.45538657901595897  0.6734276972501588  0.4009282112121582  1.0000
  He  He1       1.0  0.3429561918897893  0.1581118057680947  0.2525911331176758  1.0000
  Rh  Rh1       1.0  0.7077008583168539  0.1295717786184442  0.6670040965080262  1.0000
  In  In1       1.0  0.8186295572251331  0.33985861847188514  0.667683494091034  1.0000
  Zn  Zn1       1.0  0.4292005035261117  0.5807386784108874  0.7556808233261109  1.0000
  Ga  Ga1       1.0  0.6520159686130929  0.5138650971714106  0.4778187870979309  1.0000
