data_image0
_chemical_formula_structural       OYMgClCPArHeGaBeGaMn
_chemical_formula_sum              "O1 Y1 Mg1 Cl1 C1 P1 Ar1 He1 Ga2 Be1 Mn1"
_cell_length_a       18.64777183532715
_cell_length_b       12.434045791625977
_cell_length_c       20.0
_cell_angle_alpha    90.0
_cell_angle_beta     90.0
_cell_angle_gamma    90.0

_space_group_name_H-M_alt    "P 1"
_space_group_IT_number       1

loop_
  _space_group_symop_operation_xyz
  'x, y, z'

loop_
  _atom_site_type_symbol
  _atom_site_label
  _atom_site_symmetry_multiplicity
  _atom_site_fract_x
  _atom_site_fract_y
  _atom_site_fract_z
  _atom_site_occupancy
  O   O1        1.0  0.41961881608947216  0.20106087440123296  0.4489206075668335  1.0000
  Y   Y1        1.0  0.5282981771367389  0.7989391255987671  0.457645845413208  1.0000
  Mg  Mg1       1.0  0.35890336544573925  0.4262077561185951  0.737035083770752  1.0000
  Cl  Cl1       1.0  0.8659357384003749  0.4746748975037816  0.4459759294986725  1.0000
  C   C1        1.0  0.6131577853210297  0.463718018395707  0.5700214743614197  1.0000
  P   P1        1.0  0.43702407116109426  0.7032431806094811  0.5056693911552429  1.0000
  Ar  Ar1       1.0  0.13406426159962515  0.365935803474172  0.3120344281196594  1.0000
  He  He1       1.0  0.857739117275862  0.6401561820018681  0.5595418572425842  1.0000
  Ga  Ga1       1.0  0.5226508460255361  0.3966720712358497  0.26296491622924806  1.0000
  Be  Be1       1.0  0.5457017259613777  0.530656990137016  0.637703037261963  1.0000
  Ga  Ga2       1.0  0.5468686324884269  0.4263128715952902  0.6199633598327637  1.0000
  Mn  Mn1       1.0  0.27576664120162797  0.7726178612555474  0.5234892249107361  1.0000
