data_image0
_chemical_formula_structural       ScCuTcNaNbSePZnAlCaFeN
_chemical_formula_sum              "Sc1 Cu1 Tc1 Na1 Nb1 Se1 P1 Zn1 Al1 Ca1 Fe1 N1"
_cell_length_a       13.234552383422852
_cell_length_b       13.443761825561523
_cell_length_c       20.0
_cell_angle_alpha    90.0
_cell_angle_beta     90.0
_cell_angle_gamma    90.0

_space_group_name_H-M_alt    "P 1"
_space_group_IT_number       1

loop_
  _space_group_symop_operation_xyz
  'x, y, z'

loop_
  _atom_site_type_symbol
  _atom_site_label
  _atom_site_symmetry_multiplicity
  _atom_site_fract_x
  _atom_site_fract_y
  _atom_site_fract_z
  _atom_site_occupancy
  Sc  Sc1       1.0  0.7155827312887959  0.3645949501787852  0.491021952778101  1.0000
  Cu  Cu1       1.0  0.6732970861183704  0.49499659710149946  0.5764821708202362  1.0000
  Tc  Tc1       1.0  0.5600964103846576  0.1859598727541544  0.5459881961345673  1.0000
  Na  Na1       1.0  0.40707286015555905  0.211453360427887  0.5051188888028264  1.0000
  Nb  Nb1       1.0  0.5490517330149075  0.5052528477018128  0.5180619016289711  1.0000
  Se  Se1       1.0  0.7614695735537276  0.3031068615826876  0.4512308657169342  1.0000
  P   P1        1.0  0.18889949323484442  0.8140401272458456  0.5143729493021966  1.0000
  Zn  Zn1       1.0  0.44925274910332846  0.3861990694470081  0.4268081367015839  1.0000
  Al  Al1       1.0  0.8111005067651555  0.1980635719892861  0.5051789343357086  1.0000
  Ca  Ca1       1.0  0.7191878556223003  0.5125941472132056  0.4235178291797638  1.0000
  Fe  Fe1       1.0  0.32898727891626073  0.7911985700874369  0.4802466064691544  1.0000
  N   N1        1.0  0.6266593823288945  0.2752476695784847  0.5633155167102813  1.0000
