data_image0
_chemical_formula_structural       OClZrClCrAsMgTcSrCdBC
_chemical_formula_sum              "O1 Cl2 Zr1 Cr1 As1 Mg1 Tc1 Sr1 Cd1 B1 C1"
_cell_length_a       16.376296997070312
_cell_length_b       19.253948211669922
_cell_length_c       20.0
_cell_angle_alpha    90.0
_cell_angle_beta     90.0
_cell_angle_gamma    90.0

_space_group_name_H-M_alt    "P 1"
_space_group_IT_number       1

loop_
  _space_group_symop_operation_xyz
  'x, y, z'

loop_
  _atom_site_type_symbol
  _atom_site_label
  _atom_site_symmetry_multiplicity
  _atom_site_fract_x
  _atom_site_fract_y
  _atom_site_fract_z
  _atom_site_occupancy
  O   O1        1.0  0.7443836780401253  0.4270901286753015  0.32690609693527223  1.0000
  Cl  Cl1       1.0  0.2766654291599269  0.4284641271635052  0.4533653795719147  1.0000
  Zr  Zr1       1.0  0.6012105892908556  0.30037641855349795  0.9628903985023499  1.0000
  Cl  Cl2       1.0  0.27129011723667223  0.4720255307681898  0.26062827110290526  1.0000
  Cr  Cr1       1.0  0.3106359982697205  0.28585028114992805  0.6514227747917176  1.0000
  As  As1       1.0  0.15863283590320684  0.8701565012788007  0.6161173701286317  1.0000
  Mg  Mg1       1.0  0.1718637351593823  0.49557319626089713  0.07968140840530397  1.0000
  Tc  Tc1       1.0  0.7317103065014997  0.4949480918735476  0.03710960149765015  1.0000
  Sr  Sr1       1.0  0.15265968237327823  0.5027879161600434  0.6114327430725098  1.0000
  Cd  Cd1       1.0  0.4361240916207231  0.39548876324047655  0.22271535396575928  1.0000
  B   B1        1.0  0.5935054528671206  0.31106802350243407  0.38327354490756993  1.0000
  C   C1        1.0  0.8473403176267218  0.12984349872119924  0.5522992134094239  1.0000
