data_image0
_chemical_formula_structural       SeNInSeKTcFeOSePBIn
_chemical_formula_sum              "Se3 N1 In2 K1 Tc1 Fe1 O1 P1 B1"
_cell_length_a       12.639503479003906
_cell_length_b       25.22064781188965
_cell_length_c       20.0
_cell_angle_alpha    90.0
_cell_angle_beta     90.0
_cell_angle_gamma    90.0

_space_group_name_H-M_alt    "P 1"
_space_group_IT_number       1

loop_
  _space_group_symop_operation_xyz
  'x, y, z'

loop_
  _atom_site_type_symbol
  _atom_site_label
  _atom_site_symmetry_multiplicity
  _atom_site_fract_x
  _atom_site_fract_y
  _atom_site_fract_z
  _atom_site_occupancy
  Se  Se1       1.0  0.6318773399514694  0.5648527956942143  0.5901561796665192  1.0000
  N   N1        1.0  0.7359817855385906  0.5247999434011479  0.296056467294693  1.0000
  In  In1       1.0  0.6132972905983938  0.9008748697239475  0.6259190618991852  1.0000
  Se  Se2       1.0  0.7402400256385493  0.5672723252514221  0.26402202248573303  1.0000
  K   K1        1.0  0.6385804332145218  0.3241924813219629  0.4413574576377869  1.0000
  Tc  Tc1       1.0  0.3371581369572369  0.3887490345335431  0.5309196531772614  1.0000
  Fe  Fe1       1.0  0.8022074296713014  0.4825641276565784  0.50403670668602  1.0000
  O   O1        1.0  0.597483014838367  0.7267169156680885  0.6682823836803437  1.0000
  Se  Se3       1.0  0.7178327409103119  0.5694553678743887  0.6548499286174775  1.0000
  P   P1        1.0  0.41589377846422226  0.0991251302760525  0.5372447967529297  1.0000
  B   B1        1.0  0.27377076624403557  0.5996982229593955  0.5286010861396789  1.0000
  In  In2       1.0  0.1977925703286986  0.5426571934520634  0.735977977514267  1.0000
