data_image0
_chemical_formula_structural       FScRbVRhOYRhKAsClCo
_chemical_formula_sum              "F1 Sc1 Rb1 V1 Rh2 O1 Y1 K1 As1 Cl1 Co1"
_cell_length_a       19.024250030517578
_cell_length_b       12.819833755493164
_cell_length_c       20.0
_cell_angle_alpha    90.0
_cell_angle_beta     90.0
_cell_angle_gamma    90.0

_space_group_name_H-M_alt    "P 1"
_space_group_IT_number       1

loop_
  _space_group_symop_operation_xyz
  'x, y, z'

loop_
  _atom_site_type_symbol
  _atom_site_label
  _atom_site_symmetry_multiplicity
  _atom_site_fract_x
  _atom_site_fract_y
  _atom_site_fract_z
  _atom_site_occupancy
  F   F1        1.0  0.8249529585672455  0.22818520751612228  0.37039760351181034  1.0000
  Sc  Sc1       1.0  0.36503503894954437  0.7135476698280165  0.22492168545722963  1.0000
  Rb  Rb1       1.0  0.24052060488946164  0.4126600884354703  0.3055388987064362  1.0000
  V   V1        1.0  0.5753414833801976  0.7900321236936092  0.5399075329303742  1.0000
  Rh  Rh1       1.0  0.1314111998713479  0.23495396527598517  0.411822521686554  1.0000
  O   O1        1.0  0.5155891277117751  0.48822674905170665  0.5678188264369964  1.0000
  Y   Y1        1.0  0.8685888001286521  0.49866205829688814  0.4473306179046631  1.0000
  Rh  Rh2       1.0  0.3876765106445779  0.8049896615751303  0.7750783145427704  1.0000
  K   K1        1.0  0.32962397883897493  0.7390693055717769  0.5493357121944428  1.0000
  As  As1       1.0  0.2484209739020307  0.19501033842486964  0.5060138702392578  1.0000
  Cl  Cl1       1.0  0.3421624832342208  0.3732611304981116  0.33478652834892275  1.0000
  Co  Co1       1.0  0.3716983646585295  0.6892630185299389  0.2387059271335602  1.0000
