data_image0
_chemical_formula_structural       Se4Nb2SeNbSe3Nb
_chemical_formula_sum              "Se8 Nb4"
_cell_length_a       11.646012306213379
_cell_length_b       13.65717887878418
_cell_length_c       20.0
_cell_angle_alpha    90.0
_cell_angle_beta     90.0
_cell_angle_gamma    90.0

_space_group_name_H-M_alt    "P 1"
_space_group_IT_number       1

loop_
  _space_group_symop_operation_xyz
  'x, y, z'

loop_
  _atom_site_type_symbol
  _atom_site_label
  _atom_site_symmetry_multiplicity
  _atom_site_fract_x
  _atom_site_fract_y
  _atom_site_fract_z
  _atom_site_occupancy
  Se  Se1       1.0  0.22881399513533263  0.25500951776428205  0.2445060133934021  1.0000
  Se  Se2       1.0  0.784899890097463  0.9926778505634195  0.5560217559337616  1.0000
  Se  Se3       1.0  0.12783538882987006  0.21249040716897835  0.3908092856407166  1.0000
  Se  Se4       1.0  0.5901105813926922  0.2588624840177674  0.6160601496696473  1.0000
  Nb  Nb1       1.0  0.008586601455043754  0.4274921044628748  0.44285085797309875  1.0000
  Nb  Nb2       1.0  0.9199037048725861  0.4430071491467879  0.20156213045120241  1.0000
  Se  Se5       1.0  0.4004821512170799  0.373018325362293  0.46225227415561676  1.0000
  Nb  Nb3       1.0  0.19294798467931937  0.5208335515505995  0.45017083883285525  1.0000
  Se  Se6       1.0  0.45499616598108267  0.22343641218692803  0.3790548086166382  1.0000
  Se  Se7       1.0  0.038870048622926374  0.5759043883666803  0.3126957416534424  1.0000
  Se  Se8       1.0  0.13438581260687985  0.6912529791021179  0.7984378695487977  1.0000
  Nb  Nb4       1.0  0.9914133985449564  0.007322149436580476  0.23600221872329713  1.0000
