data_image0
_chemical_formula_structural       ArCaBeSeGeGaFeKTcAsNaAg
_chemical_formula_sum              "Ar1 Ca1 Be1 Se1 Ge1 Ga1 Fe1 K1 Tc1 As1 Na1 Ag1"
_cell_length_a       14.112510681152344
_cell_length_b       19.82166862487793
_cell_length_c       20.0
_cell_angle_alpha    90.0
_cell_angle_beta     90.0
_cell_angle_gamma    90.0

_space_group_name_H-M_alt    "P 1"
_space_group_IT_number       1

loop_
  _space_group_symop_operation_xyz
  'x, y, z'

loop_
  _atom_site_type_symbol
  _atom_site_label
  _atom_site_symmetry_multiplicity
  _atom_site_fract_x
  _atom_site_fract_y
  _atom_site_fract_z
  _atom_site_occupancy
  Ar  Ar1       1.0  0.17714776754218803  0.87387540134425  0.43592462539672855  1.0000
  Ca  Ca1       1.0  0.4033371395806472  0.6099408762076172  0.5903175696730614  1.0000
  Be  Be1       1.0  0.22549623125765306  0.49567091402517427  0.5365228354930878  1.0000
  Se  Se1       1.0  0.822852232457812  0.22299718309669414  0.7524427056312561  1.0000
  Ge  Ge1       1.0  0.5187614626666776  0.24371038098246742  0.5060755252838135  1.0000
  Ga  Ga1       1.0  0.4739251194752819  0.4885293330721133  0.6936973094940186  1.0000
  Fe  Fe1       1.0  0.45328592502790915  0.12612459865574996  0.6699524700641633  1.0000
  K   K1        1.0  0.3282278092233837  0.3812934214256317  0.7885439395904541  1.0000
  Tc  Tc1       1.0  0.7879750122313496  0.7633808199426824  0.7026137530803681  1.0000
  As  As1       1.0  0.2804534755954167  0.14595151219710278  0.734098756313324  1.0000
  Na  Na1       1.0  0.6924541696062452  0.16161494373265956  0.7336910367012024  1.0000
  Ag  Ag1       1.0  0.19870437233579583  0.8376979104551145  0.2114560604095459  1.0000
