data_image0
_chemical_formula_structural       LiNCuLiNbZnKAsCaRbMgRb
_chemical_formula_sum              "Li2 N1 Cu1 Nb1 Zn1 K1 As1 Ca1 Rb2 Mg1"
_cell_length_a       19.120237350463867
_cell_length_b       15.692435264587402
_cell_length_c       20.0
_cell_angle_alpha    90.0
_cell_angle_beta     90.0
_cell_angle_gamma    90.0

_space_group_name_H-M_alt    "P 1"
_space_group_IT_number       1

loop_
  _space_group_symop_operation_xyz
  'x, y, z'

loop_
  _atom_site_type_symbol
  _atom_site_label
  _atom_site_symmetry_multiplicity
  _atom_site_fract_x
  _atom_site_fract_y
  _atom_site_fract_z
  _atom_site_occupancy
  Li  Li1       1.0  0.1307515274311136  0.4777934568404149  0.3998447418212891  1.0000
  N   N1        1.0  0.7888522567335204  0.8406875696571031  0.7452737927436829  1.0000
  Cu  Cu1       1.0  0.38989401203709584  0.3417168797434364  0.5808878302574157  1.0000
  Li  Li2       1.0  0.5366642697085174  0.20838694766501825  0.45792287588119507  1.0000
  Nb  Nb1       1.0  0.27425943769227246  0.49650181678973276  0.6523612648248673  1.0000
  Zn  Zn1       1.0  0.57661978474561  0.47284982701914363  0.9376655340194703  1.0000
  K   K1        1.0  0.8692484725688864  0.6376029712706592  0.6857732176780701  1.0000
  As  As1       1.0  0.28299017528136783  0.15931243034289694  0.6190787561237813  1.0000
  Ca  Ca1       1.0  0.5848751749586588  0.46451685629726347  0.790131163597107  1.0000
  Rb  Rb1       1.0  0.37428232783624055  0.680542080015869  0.8961353540420532  1.0000
  Mg  Mg1       1.0  0.3815055043582674  0.29170781243134564  0.06233446598052979  1.0000
  Rb  Rb2       1.0  0.7083630687821081  0.5806807887722854  0.5782510280609131  1.0000
