data_image0
_chemical_formula_structural       SMoSMoSMoSMoS4
_chemical_formula_sum              "S8 Mo4"
_cell_length_a       8.966994285583496
_cell_length_b       16.641613006591797
_cell_length_c       20.0
_cell_angle_alpha    90.0
_cell_angle_beta     90.0
_cell_angle_gamma    90.0

_space_group_name_H-M_alt    "P 1"
_space_group_IT_number       1

loop_
  _space_group_symop_operation_xyz
  'x, y, z'

loop_
  _atom_site_type_symbol
  _atom_site_label
  _atom_site_symmetry_multiplicity
  _atom_site_fract_x
  _atom_site_fract_y
  _atom_site_fract_z
  _atom_site_occupancy
  S   S1        1.0  0.29413655301872094  0.006009084471996441  0.7624956488609315  1.0000
  Mo  Mo1       1.0  0.600838925772993  0.7661576541335597  0.5524008393287659  1.0000
  S   S2        1.0  0.3690624642717553  0.5678074080933887  0.4420636057853699  1.0000
  Mo  Mo2       1.0  0.4786038033464237  0.43644395391265417  0.5439790248870849  1.0000
  S   S3        1.0  0.9888480283326642  0.28418132409600555  0.42533588111400605  1.0000
  Mo  Mo3       1.0  0.2658136467935645  0.44051229295410727  0.6798244118690491  1.0000
  S   S4        1.0  0.720167560482102  0.4249416160324621  0.7396457314491273  1.0000
  Mo  Mo4       1.0  0.4323872981603443  0.21649591638874874  0.4839561104774475  1.0000
  S   S5        1.0  0.24012589636349616  0.5883537738346759  0.9008151412010194  1.0000
  S   S6        1.0  0.011151971667335808  0.4182578465920565  0.47766343355178836  1.0000
  S   S7        1.0  0.7496666870511535  0.9939909155280036  0.09918485879898072  1.0000
  S   S8        1.0  0.13868756696968648  0.22475794550325398  0.3241523385047913  1.0000
