data_image0
_chemical_formula_structural       NbZrRuCdOZrClAgTiRuTiO
_chemical_formula_sum              "Nb1 Zr2 Ru2 Cd1 O2 Cl1 Ag1 Ti2"
_cell_length_a       16.351423263549805
_cell_length_b       15.08544635772705
_cell_length_c       20.0
_cell_angle_alpha    90.0
_cell_angle_beta     90.0
_cell_angle_gamma    90.0

_space_group_name_H-M_alt    "P 1"
_space_group_IT_number       1

loop_
  _space_group_symop_operation_xyz
  'x, y, z'

loop_
  _atom_site_type_symbol
  _atom_site_label
  _atom_site_symmetry_multiplicity
  _atom_site_fract_x
  _atom_site_fract_y
  _atom_site_fract_z
  _atom_site_occupancy
  Nb  Nb1       1.0  0.5033326558071961  0.41140166252408533  0.8025021076202393  1.0000
  Zr  Zr1       1.0  0.5757882693396774  0.38102447826518215  0.19749789237976076  1.0000
  Ru  Ru1       1.0  0.4665921242106626  0.33831597351841425  0.3180837154388428  1.0000
  Cd  Cd1       1.0  0.84710811042529  0.6390547110275311  0.4207299701869488  1.0000
  O   O1        1.0  0.15289188957470995  0.6267142041492993  0.37374178469181063  1.0000
  Zr  Zr2       1.0  0.310660130143342  0.2563221173130735  0.4860435128211975  1.0000
  Cl  Cl1       1.0  0.19702281212034964  0.693042862488405  0.5801456093788148  1.0000
  Ag  Ag1       1.0  0.35499815988955835  0.8342773597335784  0.4058796022087336  1.0000
  Ti  Ti1       1.0  0.6888082354128233  0.1657226402664216  0.7037441015243531  1.0000
  Ru  Ru2       1.0  0.5495679677307035  0.1700793836885868  0.5685156464576722  1.0000
  Ti  Ti2       1.0  0.5171317708627989  0.44500687718865256  0.41331252828240395  1.0000
  O   O2        1.0  0.6815368027920686  0.274201575055425  0.4203382283449173  1.0000
