data_image0
_chemical_formula_structural       ClSiNiBNeNiBSiPSiSr2
_chemical_formula_sum              "Cl1 Si3 Ni2 B2 Ne1 P1 Sr2"
_cell_length_a       19.184139251708984
_cell_length_b       11.73414134979248
_cell_length_c       20.0
_cell_angle_alpha    90.0
_cell_angle_beta     90.0
_cell_angle_gamma    90.0

_space_group_name_H-M_alt    "P 1"
_space_group_IT_number       1

loop_
  _space_group_symop_operation_xyz
  'x, y, z'

loop_
  _atom_site_type_symbol
  _atom_site_label
  _atom_site_symmetry_multiplicity
  _atom_site_fract_x
  _atom_site_fract_y
  _atom_site_fract_z
  _atom_site_occupancy
  Cl  Cl1       1.0  0.5589467326750589  0.7869464799609303  0.26547943353652953  1.0000
  Si  Si1       1.0  0.4977147700331298  0.6977921108498532  0.3116878390312195  1.0000
  Ni  Ni1       1.0  0.848421181855583  0.2794893551673953  0.546770203113556  1.0000
  B   B1        1.0  0.4707841739432854  0.5147709187534374  0.6108540486544372  1.0000
  Ne  Ne1       1.0  0.6144046180488514  0.21441273745363248  0.49752044677734375  1.0000
  Ni  Ni2       1.0  0.3680388345054998  0.2130535200390698  0.7345205664634705  1.0000
  B   B2        1.0  0.8321464232402143  0.23634145591170583  0.6895562887191773  1.0000
  Si  Si2       1.0  0.130315997273418  0.6215379332922036  0.2979889273643494  1.0000
  P   P1        1.0  0.869684002726582  0.5005151416933765  0.40427225828170776  1.0000
  Si  Si3       1.0  0.3594518510314263  0.3280657529145274  0.3529543519020081  1.0000
  Sr  Sr1       1.0  0.2775663639959141  0.7290066883184594  0.3953289151191712  1.0000
  Sr  Sr2       1.0  0.3765743540424581  0.2313170897207842  0.6395006567239762  1.0000
