data_image0
_chemical_formula_structural       MgNePYCoNbKAlSiFeVRb
_chemical_formula_sum              "Mg1 Ne1 P1 Y1 Co1 Nb1 K1 Al1 Si1 Fe1 V1 Rb1"
_cell_length_a       13.579002380371094
_cell_length_b       19.530214309692383
_cell_length_c       20.0
_cell_angle_alpha    90.0
_cell_angle_beta     90.0
_cell_angle_gamma    90.0

_space_group_name_H-M_alt    "P 1"
_space_group_IT_number       1

loop_
  _space_group_symop_operation_xyz
  'x, y, z'

loop_
  _atom_site_type_symbol
  _atom_site_label
  _atom_site_symmetry_multiplicity
  _atom_site_fract_x
  _atom_site_fract_y
  _atom_site_fract_z
  _atom_site_occupancy
  Mg  Mg1       1.0  0.3629561613467208  0.12800678785994218  0.5229621738195419  1.0000
  Ne  Ne1       1.0  0.48209987543733185  0.6971584284205696  0.4623786568641663  1.0000
  P   P1        1.0  0.466613117454674  0.49421377550831064  0.528925034403801  1.0000
  Y   Y1        1.0  0.41594579838377554  0.2722406202789855  0.38633328676223755  1.0000
  Co  Co1       1.0  0.2997105020600317  0.298256623861988  0.5315913230180741  1.0000
  Nb  Nb1       1.0  0.6515419405931027  0.7061275075426363  0.29360738992691043  1.0000
  K   K1        1.0  0.5190384988962411  0.44764983326264274  0.7662031769752503  1.0000
  Al  Al1       1.0  0.8158922362959996  0.7883172418224912  0.5122103691101074  1.0000
  Si  Si1       1.0  0.18410776370400045  0.5882622975026899  0.4686298370361328  1.0000
  Fe  Fe1       1.0  0.47764529923413906  0.8719932121400579  0.5191790193319321  1.0000
  V   V1        1.0  0.6898212052351156  0.39859545896818555  0.23379682302474977  1.0000
  Rb  Rb1       1.0  0.1905968424178305  0.4301834438095692  0.6747799754142761  1.0000
