data_image0
_chemical_formula_structural       Pt3SePtSe7
_chemical_formula_sum              "Pt4 Se8"
_cell_length_a       20.753765106201172
_cell_length_b       17.828907012939453
_cell_length_c       20.0
_cell_angle_alpha    90.0
_cell_angle_beta     90.0
_cell_angle_gamma    90.0

_space_group_name_H-M_alt    "P 1"
_space_group_IT_number       1

loop_
  _space_group_symop_operation_xyz
  'x, y, z'

loop_
  _atom_site_type_symbol
  _atom_site_label
  _atom_site_symmetry_multiplicity
  _atom_site_fract_x
  _atom_site_fract_y
  _atom_site_fract_z
  _atom_site_occupancy
  Pt  Pt1       1.0  0.6086405433636309  0.32471782240393726  0.14448670148849488  1.0000
  Pt  Pt2       1.0  0.42683622523768605  0.44751891471949345  0.373181226849556  1.0000
  Pt  Pt3       1.0  0.9951815673263824  0.7583655683958526  0.7956344723701477  1.0000
  Se  Se1       1.0  0.7913735243705743  0.43282707043458335  0.8555132985115051  1.0000
  Pt  Pt4       1.0  0.5096526498145842  0.005608916925435106  0.16800020933151247  1.0000
  Se  Se2       1.0  0.4566540260730911  0.6240991691666269  0.3565069556236267  1.0000
  Se  Se3       1.0  0.004818432673617653  0.9943910830745649  0.1863746762275696  1.0000
  Se  Se4       1.0  0.7339811436501409  0.4272120021199292  0.5369606971740722  1.0000
  Se  Se5       1.0  0.5349910968251853  0.631924311274416  0.5321247220039368  1.0000
  Se  Se6       1.0  0.8680015876371089  0.2931973284356151  0.5060764789581299  1.0000
  Se  Se7       1.0  0.24481514711491184  0.5310390282444513  0.5508532762527466  1.0000
  Se  Se8       1.0  0.629897821709042  0.6297004971499277  0.5770164370536804  1.0000
