data_image0
_chemical_formula_structural       GeVHHeSMnClMnRbBrClCd
_chemical_formula_sum              "Ge1 V1 H1 He1 S1 Mn2 Cl2 Rb1 Br1 Cd1"
_cell_length_a       14.960081100463867
_cell_length_b       18.52165412902832
_cell_length_c       20.0
_cell_angle_alpha    90.0
_cell_angle_beta     90.0
_cell_angle_gamma    90.0

_space_group_name_H-M_alt    "P 1"
_space_group_IT_number       1

loop_
  _space_group_symop_operation_xyz
  'x, y, z'

loop_
  _atom_site_type_symbol
  _atom_site_label
  _atom_site_symmetry_multiplicity
  _atom_site_fract_x
  _atom_site_fract_y
  _atom_site_fract_z
  _atom_site_occupancy
  Ge  Ge1       1.0  0.7648776450772375  0.49760336710679715  0.36949347555637363  1.0000
  V   V1        1.0  0.48645221658591287  0.43100396357371845  0.932474422454834  1.0000
  H   H1        1.0  0.22433406832580446  0.8650228418583619  0.28389519453048706  1.0000
  He  He1       1.0  0.5315995658000474  0.5551448306637814  0.06752557754516601  1.0000
  S   S1        1.0  0.8328885985028669  0.5968940106389037  0.8283872604370117  1.0000
  Mn  Mn1       1.0  0.7724663908123411  0.706758362261102  0.7483921527862549  1.0000
  Cl  Cl1       1.0  0.36412307986430864  0.5076033544918219  0.5275647282600403  1.0000
  Mn  Mn2       1.0  0.2676189498266757  0.42804101483716744  0.43320870846509935  1.0000
  Rb  Rb1       1.0  0.16711140149713305  0.17937806061181497  0.20582056045532227  1.0000
  Br  Br1       1.0  0.4652339944546944  0.13497715814163805  0.38565149754285816  1.0000
  Cl  Cl2       1.0  0.6424632813473151  0.6747361874002451  0.2880730986595154  1.0000
  Cd  Cd1       1.0  0.42840191028344754  0.775474616558818  0.6822988271713257  1.0000
