data_image0
_chemical_formula_structural       NaBeRhAlAsScOLiRhBrCrAl
_chemical_formula_sum              "Na1 Be1 Rh2 Al2 As1 Sc1 O1 Li1 Br1 Cr1"
_cell_length_a       23.463985443115234
_cell_length_b       13.297471046447754
_cell_length_c       20.0
_cell_angle_alpha    90.0
_cell_angle_beta     90.0
_cell_angle_gamma    90.0

_space_group_name_H-M_alt    "P 1"
_space_group_IT_number       1

loop_
  _space_group_symop_operation_xyz
  'x, y, z'

loop_
  _atom_site_type_symbol
  _atom_site_label
  _atom_site_symmetry_multiplicity
  _atom_site_fract_x
  _atom_site_fract_y
  _atom_site_fract_z
  _atom_site_occupancy
  Na  Na1       1.0  0.6347062505293903  0.18800568246976043  0.6602459073066712  1.0000
  Be  Be1       1.0  0.49899830399989076  0.4286327504271014  0.4644104421138764  1.0000
  Rh  Rh1       1.0  0.46747928529007665  0.6182089419452589  0.568481731414795  1.0000
  Al  Al1       1.0  0.7359470226760352  0.8119943175302395  0.4240219026803971  1.0000
  As  As1       1.0  0.24839929015762297  0.42388371452060253  0.6350574374198914  1.0000
  Sc  Sc1       1.0  0.4420542711906125  0.5597425435020947  0.8248529791831971  1.0000
  O   O1        1.0  0.8934537151457914  0.36283206459768913  0.22827610969543458  1.0000
  Li  Li1       1.0  0.5145899681561023  0.31637152901417437  0.175147020816803  1.0000
  Rh  Rh2       1.0  0.10654628485420853  0.32044366804416335  0.6962384581565857  1.0000
  Br  Br1       1.0  0.4365965104862783  0.3249005766810685  0.773287832736969  1.0000
  Cr  Cr1       1.0  0.5730274762341319  0.5631567641564555  0.2924483358860016  1.0000
  Al  Al2       1.0  0.5333582488896418  0.5764445431708989  0.5702019810676575  1.0000
