data_image0
_chemical_formula_structural       YSrYKSScHRuYCoKAg
_chemical_formula_sum              "Y3 Sr1 K2 S1 Sc1 H1 Ru1 Co1 Ag1"
_cell_length_a       16.410987854003906
_cell_length_b       15.32673454284668
_cell_length_c       20.0
_cell_angle_alpha    90.0
_cell_angle_beta     90.0
_cell_angle_gamma    90.0

_space_group_name_H-M_alt    "P 1"
_space_group_IT_number       1

loop_
  _space_group_symop_operation_xyz
  'x, y, z'

loop_
  _atom_site_type_symbol
  _atom_site_label
  _atom_site_symmetry_multiplicity
  _atom_site_fract_x
  _atom_site_fract_y
  _atom_site_fract_z
  _atom_site_occupancy
  Y   Y1        1.0  0.4762564353160662  0.8368863325842937  0.5274172071367502  1.0000
  Sr  Sr1       1.0  0.6982488490349467  0.7217529057796763  0.5215986870229244  1.0000
  Y   Y2        1.0  0.5198621366536519  0.6925907261639825  0.5899077892303467  1.0000
  K   K1        1.0  0.3253746854400771  0.2324555840287679  0.7142018735408784  1.0000
  S   S1        1.0  0.3885429582044992  0.1631136674157063  0.5685419976711273  1.0000
  Sc  Sc1       1.0  0.26116815572697805  0.43632431331086585  0.32971156239509586  1.0000
  H   H1        1.0  0.7085123907437445  0.17758202288733554  0.5601276576519013  1.0000
  Ru  Ru1       1.0  0.424693022232233  0.48289739793666275  0.4847090125083924  1.0000
  Y   Y3        1.0  0.44144328001679206  0.5370528131421795  0.5478158995509148  1.0000
  Co  Co1       1.0  0.15233698903915863  0.6125722299316431  0.2857981264591217  1.0000
  K   K2        1.0  0.6847154357163412  0.6204617794180364  0.610247403383255  1.0000
  Ag  Ag1       1.0  0.8476630109608414  0.6030532417959379  0.6283576190471649  1.0000
