data_image0
_chemical_formula_structural       GaPdFeCoHCrPLiNAsCaH
_chemical_formula_sum              "Ga1 Pd1 Fe1 Co1 H2 Cr1 P1 Li1 N1 As1 Ca1"
_cell_length_a       16.297412872314453
_cell_length_b       18.003007888793945
_cell_length_c       20.0
_cell_angle_alpha    90.0
_cell_angle_beta     90.0
_cell_angle_gamma    90.0

_space_group_name_H-M_alt    "P 1"
_space_group_IT_number       1

loop_
  _space_group_symop_operation_xyz
  'x, y, z'

loop_
  _atom_site_type_symbol
  _atom_site_label
  _atom_site_symmetry_multiplicity
  _atom_site_fract_x
  _atom_site_fract_y
  _atom_site_fract_z
  _atom_site_occupancy
  Ga  Ga1       1.0  0.7265095696221375  0.8611343162518894  0.5411962151527405  1.0000
  Pd  Pd1       1.0  0.505491691739214  0.6079595682632498  0.5046893715858459  1.0000
  Fe  Fe1       1.0  0.8232677852213894  0.6576762862466801  0.46369508504867557  1.0000
  Co  Co1       1.0  0.5751242928523461  0.1388656837481106  0.19064263105392457  1.0000
  H   H1        1.0  0.3408615100079138  0.749963024808023  0.6249709576368332  1.0000
  Cr  Cr1       1.0  0.15339859510250875  0.6623723243442652  0.5871831506490708  1.0000
  P   P1        1.0  0.4998313725388078  0.4774582966980518  0.5491758048534393  1.0000
  Li  Li1       1.0  0.4226122271765893  0.3936443564997567  0.6600183635950089  1.0000
  N   N1        1.0  0.20507166390973977  0.4129619872777794  0.7533012747764588  1.0000
  As  As1       1.0  0.2991252130893443  0.6512951190044965  0.6495329886674881  1.0000
  Ca  Ca1       1.0  0.8466014048974912  0.47282675660502477  0.8093573689460755  1.0000
  H   H2        1.0  0.5294763376908149  0.5666762168254923  0.5324866831302643  1.0000
