data_image0
_chemical_formula_structural       S2VS4VS2V2
_chemical_formula_sum              "S8 V4"
_cell_length_a       12.03051471710205
_cell_length_b       15.136239051818848
_cell_length_c       20.0
_cell_angle_alpha    90.0
_cell_angle_beta     90.0
_cell_angle_gamma    90.0

_space_group_name_H-M_alt    "P 1"
_space_group_IT_number       1

loop_
  _space_group_symop_operation_xyz
  'x, y, z'

loop_
  _atom_site_type_symbol
  _atom_site_label
  _atom_site_symmetry_multiplicity
  _atom_site_fract_x
  _atom_site_fract_y
  _atom_site_fract_z
  _atom_site_occupancy
  S   S1        1.0  0.9375998867689018  0.9933933610673272  0.44342637658119205  1.0000
  S   S2        1.0  0.9916878116203613  0.7848169110954059  0.5174883402884006  1.0000
  V   V1        1.0  0.6455034525021148  0.39439476786594235  0.21066654920578004  1.0000
  S   S3        1.0  0.4385509439663814  0.7856584511215294  0.25769251585006714  1.0000
  S   S4        1.0  0.7314195350121035  0.3201412648724944  0.6876293420791626  1.0000
  S   S5        1.0  0.3427435742897551  0.2880686522512653  0.4370233774185181  1.0000
  S   S6        1.0  0.421184568196251  0.006606638932672829  0.5135482549667358  1.0000
  V   V2        1.0  0.775844508668275  0.23988757960260462  0.3559842824935913  1.0000
  S   S7        1.0  0.008312188379638728  0.6133695044645128  0.49856768846511845  1.0000
  S   S8        1.0  0.48957221966484266  0.485591552895105  0.78933345079422  1.0000
  V   V3        1.0  0.23002302275822997  0.41682685260407387  0.5968526065349579  1.0000
  V   V4        1.0  0.6126839727896571  0.8750021343292319  0.5885216534137726  1.0000
