data_image0
_chemical_formula_structural       RbSrAgPdHeCdMnCrTcArTcK
_chemical_formula_sum              "Rb1 Sr1 Ag1 Pd1 He1 Cd1 Mn1 Cr1 Tc2 Ar1 K1"
_cell_length_a       24.191293716430664
_cell_length_b       20.75285530090332
_cell_length_c       20.0
_cell_angle_alpha    90.0
_cell_angle_beta     90.0
_cell_angle_gamma    90.0

_space_group_name_H-M_alt    "P 1"
_space_group_IT_number       1

loop_
  _space_group_symop_operation_xyz
  'x, y, z'

loop_
  _atom_site_type_symbol
  _atom_site_label
  _atom_site_symmetry_multiplicity
  _atom_site_fract_x
  _atom_site_fract_y
  _atom_site_fract_z
  _atom_site_occupancy
  Rb  Rb1       1.0  0.10334296417979526  0.8199010626651985  0.43295632600784306  1.0000
  Sr  Sr1       1.0  0.3744260125890893  0.3541554558335837  0.5961871385574341  1.0000
  Ag  Ag1       1.0  0.7510167185660092  0.3108480784796764  0.631438171863556  1.0000
  Pd  Pd1       1.0  0.48245761570123646  0.22040495160458556  0.4489715039730072  1.0000
  He  He1       1.0  0.8966570358202048  0.47657960274337335  0.08207385540008545  1.0000
  Cd  Cd1       1.0  0.6720607192740321  0.5309899326067902  0.42932214140892033  1.0000
  Mn  Mn1       1.0  0.42354913446561815  0.8795346603957382  0.5032549306750298  1.0000
  Cr  Cr1       1.0  0.5187698322216516  0.7801789384523999  0.19733712673187256  1.0000
  Tc  Tc1       1.0  0.5675236415007091  0.5926613668357984  0.47592579126358037  1.0000
  Ar  Ar1       1.0  0.48997759241453565  0.12046533960426169  0.9179261445999146  1.0000
  Tc  Tc2       1.0  0.2727912030121724  0.6087344387509623  0.6467729568481446  1.0000
  K   K1        1.0  0.6259272005774567  0.5836548678766079  0.6214540600776672  1.0000
