data_image0
_chemical_formula_structural       PCdSrCaCRbZrCrGaLiSrTc
_chemical_formula_sum              "P1 Cd1 Sr2 Ca1 C1 Rb1 Zr1 Cr1 Ga1 Li1 Tc1"
_cell_length_a       18.39741325378418
_cell_length_b       17.416549682617188
_cell_length_c       20.0
_cell_angle_alpha    90.0
_cell_angle_beta     90.0
_cell_angle_gamma    90.0

_space_group_name_H-M_alt    "P 1"
_space_group_IT_number       1

loop_
  _space_group_symop_operation_xyz
  'x, y, z'

loop_
  _atom_site_type_symbol
  _atom_site_label
  _atom_site_symmetry_multiplicity
  _atom_site_fract_x
  _atom_site_fract_y
  _atom_site_fract_z
  _atom_site_occupancy
  P   P1        1.0  0.13588865603522787  0.41263964486718635  0.19393830299377443  1.0000
  Cd  Cd1       1.0  0.32066717239247183  0.5975981564703687  0.5022569298744202  1.0000
  Sr  Sr1       1.0  0.3201154408829031  0.44988562265257653  0.41297551393508913  1.0000
  Ca  Ca1       1.0  0.370966530863011  0.3281468616475573  0.8060616970062257  1.0000
  C   C1        1.0  0.452406664663669  0.14354166137351052  0.3532231092453003  1.0000
  Rb  Rb1       1.0  0.24321957561124344  0.5879486141495045  0.20192956924438477  1.0000
  Zr  Zr1       1.0  0.24077399012165515  0.3098375333249811  0.6054732322692872  1.0000
  Cr  Cr1       1.0  0.36377044817487203  0.6591499605532101  0.6912897109985352  1.0000
  Ga  Ga1       1.0  0.5404074889174202  0.8564583386264896  0.5976945400238037  1.0000
  Li  Li1       1.0  0.8641113439647721  0.25934446487724405  0.45656138807535174  1.0000
  Sr  Sr2       1.0  0.5586534500960703  0.39188125760571785  0.33936934471130376  1.0000
  Tc  Tc1       1.0  0.7530590683178748  0.14612552467954137  0.6173907637596131  1.0000
