data_image0
_chemical_formula_structural       PdNeBYLiNiBeMn2HeAsTc
_chemical_formula_sum              "Pd1 Ne1 B1 Y1 Li1 Ni1 Be1 Mn2 He1 As1 Tc1"
_cell_length_a       16.598684310913086
_cell_length_b       18.283483505249023
_cell_length_c       20.0
_cell_angle_alpha    90.0
_cell_angle_beta     90.0
_cell_angle_gamma    90.0

_space_group_name_H-M_alt    "P 1"
_space_group_IT_number       1

loop_
  _space_group_symop_operation_xyz
  'x, y, z'

loop_
  _atom_site_type_symbol
  _atom_site_label
  _atom_site_symmetry_multiplicity
  _atom_site_fract_x
  _atom_site_fract_y
  _atom_site_fract_z
  _atom_site_occupancy
  Pd  Pd1       1.0  0.20878460259252207  0.6132112217735151  0.8011248946189881  1.0000
  Ne  Ne1       1.0  0.8493856672761856  0.6401513262675427  0.28694218397140503  1.0000
  B   B1        1.0  0.5348606333124907  0.3338912064925962  0.5776977121829987  1.0000
  Y   Y1        1.0  0.32861649900011386  0.6860917792975472  0.23093937635421755  1.0000
  Li  Li1       1.0  0.4429480737182032  0.8632645818908802  0.5328520067036152  1.0000
  Ni  Ni1       1.0  0.7848562124338881  0.5239235235286821  0.18995066881179812  1.0000
  Be  Be1       1.0  0.2324586287995012  0.36665662665370724  0.450211238861084  1.0000
  Mn  Mn1       1.0  0.15061433272381436  0.3020037115273814  0.6450339913368226  1.0000
  Mn  Mn2       1.0  0.3771886118583748  0.13673541810911982  0.6520904064178468  1.0000
  He  He1       1.0  0.48625316015839604  0.5084837957372621  0.3125321984291077  1.0000
  As  As1       1.0  0.36721606491750464  0.24487787209658107  0.810049331188202  1.0000
  Tc  Tc1       1.0  0.4734127490048539  0.4470657986058769  0.4963867783546448  1.0000
