data_image0
_chemical_formula_structural       K2BeClInYClCoBeZrHeMo
_chemical_formula_sum              "K2 Be2 Cl2 In1 Y1 Co1 Zr1 He1 Mo1"
_cell_length_a       18.78540802001953
_cell_length_b       16.514726638793945
_cell_length_c       20.0
_cell_angle_alpha    90.0
_cell_angle_beta     90.0
_cell_angle_gamma    90.0

_space_group_name_H-M_alt    "P 1"
_space_group_IT_number       1

loop_
  _space_group_symop_operation_xyz
  'x, y, z'

loop_
  _atom_site_type_symbol
  _atom_site_label
  _atom_site_symmetry_multiplicity
  _atom_site_fract_x
  _atom_site_fract_y
  _atom_site_fract_z
  _atom_site_occupancy
  K   K1        1.0  0.3933557631036117  0.24205779413991357  0.4000566840171814  1.0000
  K   K2        1.0  0.8092132964441742  0.8486199443019572  0.42054179906845096  1.0000
  Be  Be1       1.0  0.6301160203245743  0.3977210098131622  0.9352053284645081  1.0000
  Cl  Cl1       1.0  0.4538435400413688  0.7837576123411137  0.7849754929542542  1.0000
  In  In1       1.0  0.46543193845058217  0.3564533116867143  0.4740094780921936  1.0000
  Y   Y1        1.0  0.13308200486873542  0.6687681101506004  0.413955819606781  1.0000
  Cl  Cl2       1.0  0.25139713933363955  0.5670299485833126  0.5337315574288368  1.0000
  Co  Co1       1.0  0.44486748174731877  0.6852876078726584  0.06479467153549194  1.0000
  Be  Be2       1.0  0.40215198649319867  0.58409830174443  0.600525838136673  1.0000
  Zr  Zr1       1.0  0.8669179951312646  0.330551862320296  0.44807014465332035  1.0000
  He  He1       1.0  0.7741568935575356  0.6472222498124092  0.3759305834770203  1.0000
  Mo  Mo1       1.0  0.6427599263232153  0.15138005569804283  0.6816962838172913  1.0000
