data_image0
_chemical_formula_structural       AgRuPCrNZrNbNTcZrRbRh
_chemical_formula_sum              "Ag1 Ru1 P1 Cr1 N2 Zr2 Nb1 Tc1 Rb1 Rh1"
_cell_length_a       20.125455856323242
_cell_length_b       12.369085311889648
_cell_length_c       20.0
_cell_angle_alpha    90.0
_cell_angle_beta     90.0
_cell_angle_gamma    90.0

_space_group_name_H-M_alt    "P 1"
_space_group_IT_number       1

loop_
  _space_group_symop_operation_xyz
  'x, y, z'

loop_
  _atom_site_type_symbol
  _atom_site_label
  _atom_site_symmetry_multiplicity
  _atom_site_fract_x
  _atom_site_fract_y
  _atom_site_fract_z
  _atom_site_occupancy
  Ag  Ag1       1.0  0.48264209899317967  0.4652087466462559  0.5065379619598389  1.0000
  Ru  Ru1       1.0  0.4114758184472686  0.6625562570673109  0.5848903179168702  1.0000
  P   P1        1.0  0.4640734736699447  0.797883204962002  0.7273727297782898  1.0000
  Cr  Cr1       1.0  0.7269175409075551  0.7812696753242848  0.3111423015594483  1.0000
  N   N1        1.0  0.4602007196109381  0.507234476511277  0.4263582468032837  1.0000
  Zr  Zr1       1.0  0.5662874835865114  0.2021167950379979  0.19895894527435304  1.0000
  Nb  Nb1       1.0  0.3585983342707957  0.6605241329056156  0.5015955448150635  1.0000
  N   N2        1.0  0.12422077688222614  0.2674945003541269  0.4370693325996399  1.0000
  Tc  Tc1       1.0  0.8757792231177739  0.3865060361562587  0.7097795605659485  1.0000
  Zr  Zr2       1.0  0.4447038866856813  0.32858025751264885  0.5081076353788376  1.0000
  Rb  Rb1       1.0  0.12882754736633106  0.4367492078405073  0.801041054725647  1.0000
  Rh  Rh1       1.0  0.5979720234425607  0.6257070009497355  0.6020495235919953  1.0000
