data_image0
_chemical_formula_structural       LiHeRbHRhFeCNeSrNeAlCa
_chemical_formula_sum              "Li1 He1 Rb1 H1 Rh1 Fe1 C1 Ne2 Sr1 Al1 Ca1"
_cell_length_a       16.996768951416016
_cell_length_b       17.081764221191406
_cell_length_c       20.0
_cell_angle_alpha    90.0
_cell_angle_beta     90.0
_cell_angle_gamma    90.0

_space_group_name_H-M_alt    "P 1"
_space_group_IT_number       1

loop_
  _space_group_symop_operation_xyz
  'x, y, z'

loop_
  _atom_site_type_symbol
  _atom_site_label
  _atom_site_symmetry_multiplicity
  _atom_site_fract_x
  _atom_site_fract_y
  _atom_site_fract_z
  _atom_site_occupancy
  Li  Li1       1.0  0.22190823695838113  0.5511275266409432  0.31478305459022526  1.0000
  He  He1       1.0  0.8529132209100411  0.5081070937945663  0.5808262586593628  1.0000
  Rb  Rb1       1.0  0.4100838192198987  0.6543740712685149  0.2895464837551117  1.0000
  H   H1        1.0  0.7926283120952706  0.585058683993906  0.4128458142280579  1.0000
  Rh  Rh1       1.0  0.4336944352456605  0.5540230152335412  0.8708405494689941  1.0000
  Fe  Fe1       1.0  0.5698885515107839  0.4630863905950682  0.2626994729042053  1.0000
  C   C1        1.0  0.4920394367112315  0.41360659947604694  0.12915945053100586  1.0000
  Ne  Ne1       1.0  0.32274518774234945  0.8536450798614166  0.5316271543502807  1.0000
  Sr  Sr1       1.0  0.1470867790899589  0.6631695659912432  0.245518434047699  1.0000
  Ne  Ne2       1.0  0.18928988199347294  0.43212974173671836  0.721656084060669  1.0000
  Al  Al1       1.0  0.6522950551451981  0.727930065486317  0.2023482084274292  1.0000
  Ca  Ca1       1.0  0.38528912734640064  0.14635492013858337  0.24315395355224612  1.0000
