data_image0
_chemical_formula_structural       GaNeKKrNiFeSBAgTiAsLi
_chemical_formula_sum              "Ga1 Ne1 K1 Kr1 Ni1 Fe1 S1 B1 Ag1 Ti1 As1 Li1"
_cell_length_a       15.582815170288086
_cell_length_b       20.102188110351562
_cell_length_c       20.0
_cell_angle_alpha    90.0
_cell_angle_beta     90.0
_cell_angle_gamma    90.0

_space_group_name_H-M_alt    "P 1"
_space_group_IT_number       1

loop_
  _space_group_symop_operation_xyz
  'x, y, z'

loop_
  _atom_site_type_symbol
  _atom_site_label
  _atom_site_symmetry_multiplicity
  _atom_site_fract_x
  _atom_site_fract_y
  _atom_site_fract_z
  _atom_site_occupancy
  Ga  Ga1       1.0  0.34891905734757767  0.37742321954627883  0.7154123067855835  1.0000
  Ne  Ne1       1.0  0.6839797766993725  0.5178702671591455  0.592578935623169  1.0000
  K   K1        1.0  0.5355894249036369  0.5628639757286418  0.6560483455657959  1.0000
  Kr  Kr1       1.0  0.6086066578309628  0.3064894458246705  0.3478217005729676  1.0000
  Ni  Ni1       1.0  0.48905874975504543  0.5316119001709406  0.1898904323577881  1.0000
  Fe  Fe1       1.0  0.8395668579341956  0.12436458283519948  0.742324447631836  1.0000
  S   S1        1.0  0.5019178157236921  0.5789278968807903  0.42968963980674746  1.0000
  B   B1        1.0  0.7198065596533022  0.8756354171648005  0.31822896003723145  1.0000
  Ag  Ag1       1.0  0.7660765766168255  0.3771529107716084  0.20085535049438477  1.0000
  Ti  Ti1       1.0  0.2444833053300763  0.43495356941841495  0.559278005361557  1.0000
  As  As1       1.0  0.4110815907645189  0.54449794678716  0.810109567642212  1.0000
  Li  Li1       1.0  0.16043314206580436  0.45959208198694873  0.33540250062942506  1.0000
