data_image0
_chemical_formula_structural       GeFeVOAlInFeScSSeMnGa
_chemical_formula_sum              "Ge1 Fe2 V1 O1 Al1 In1 Sc1 S1 Se1 Mn1 Ga1"
_cell_length_a       16.813369750976562
_cell_length_b       20.991378784179688
_cell_length_c       20.0
_cell_angle_alpha    90.0
_cell_angle_beta     90.0
_cell_angle_gamma    90.0

_space_group_name_H-M_alt    "P 1"
_space_group_IT_number       1

loop_
  _space_group_symop_operation_xyz
  'x, y, z'

loop_
  _atom_site_type_symbol
  _atom_site_label
  _atom_site_symmetry_multiplicity
  _atom_site_fract_x
  _atom_site_fract_y
  _atom_site_fract_z
  _atom_site_occupancy
  Ge  Ge1       1.0  0.2549741079118344  0.8809034764165791  0.3863139867782593  1.0000
  Fe  Fe1       1.0  0.6390075953074787  0.4137099073074913  0.6292865693569184  1.0000
  V   V1        1.0  0.2763855483259989  0.18867900976672813  0.7846416473388672  1.0000
  O   O1        1.0  0.40913569933198324  0.48057587514201955  0.2226193904876709  1.0000
  Al  Al1       1.0  0.4122388170729118  0.11909652358342099  0.564325338602066  1.0000
  In  In1       1.0  0.6737049389861518  0.2207831373469769  0.5408886436372996  1.0000
  Fe  Fe2       1.0  0.32404661182786526  0.4354607236926752  0.42190649509429934  1.0000
  Sc  Sc1       1.0  0.20371528322931423  0.2093182058143871  0.3268389940261841  1.0000
  S   S1        1.0  0.3050770185823152  0.20768311842921122  0.4110179424285889  1.0000
  Se  Se1       1.0  0.8513088215741991  0.324910433647527  0.21535835266113282  1.0000
  Mn  Mn1       1.0  0.6618390081369948  0.4644518588749218  0.6891324400901795  1.0000
  Ga  Ga1       1.0  0.14869117842580096  0.24158168513132675  0.25819718837738037  1.0000
