data_image0
_chemical_formula_structural       ClNiZn2InMgGeRuYCuRuK
_chemical_formula_sum              "Cl1 Ni1 Zn2 In1 Mg1 Ge1 Ru2 Y1 Cu1 K1"
_cell_length_a       17.335477828979492
_cell_length_b       18.17044448852539
_cell_length_c       20.0
_cell_angle_alpha    90.0
_cell_angle_beta     90.0
_cell_angle_gamma    90.0

_space_group_name_H-M_alt    "P 1"
_space_group_IT_number       1

loop_
  _space_group_symop_operation_xyz
  'x, y, z'

loop_
  _atom_site_type_symbol
  _atom_site_label
  _atom_site_symmetry_multiplicity
  _atom_site_fract_x
  _atom_site_fract_y
  _atom_site_fract_z
  _atom_site_occupancy
  Cl  Cl1       1.0  0.45852908916683344  0.7307603143888667  0.6887620747089387  1.0000
  Ni  Ni1       1.0  0.30222409864995126  0.8522723503355781  0.3225061595439911  1.0000
  Zn  Zn1       1.0  0.5005482461870858  0.17213772966613503  0.3707469798624516  1.0000
  Zn  Zn2       1.0  0.3473346899139302  0.5806676286452613  0.32431592345237736  1.0000
  In  In1       1.0  0.3009122756038955  0.13758606739525533  0.30353130698204045  1.0000
  Mg  Mg1       1.0  0.4813893428185737  0.17132122177334788  0.5447247445583344  1.0000
  Ge  Ge1       1.0  0.5437801326096134  0.7279877132278583  0.49549363255500795  1.0000
  Ru  Ru1       1.0  0.26750264584378347  0.6761962047944764  0.3536011636257172  1.0000
  Y   Y1        1.0  0.14421292707725555  0.7989687185680938  0.5277932584285736  1.0000
  Cu  Cu1       1.0  0.3031284413985899  0.8624139326047447  0.4036913767457009  1.0000
  Ru  Ru2       1.0  0.663353938585617  0.5495855475846125  0.520518010854721  1.0000
  K   K1        1.0  0.8557870729227445  0.4662730595118105  0.6964686930179597  1.0000
