data_image0
_chemical_formula_structural       SrRuGeSPdFeScRhCrPdClSi
_chemical_formula_sum              "Sr1 Ru1 Ge1 S1 Pd2 Fe1 Sc1 Rh1 Cr1 Cl1 Si1"
_cell_length_a       16.233842849731445
_cell_length_b       14.384340286254883
_cell_length_c       20.0
_cell_angle_alpha    90.0
_cell_angle_beta     90.0
_cell_angle_gamma    90.0

_space_group_name_H-M_alt    "P 1"
_space_group_IT_number       1

loop_
  _space_group_symop_operation_xyz
  'x, y, z'

loop_
  _atom_site_type_symbol
  _atom_site_label
  _atom_site_symmetry_multiplicity
  _atom_site_fract_x
  _atom_site_fract_y
  _atom_site_fract_z
  _atom_site_occupancy
  Sr  Sr1       1.0  0.48619202345768386  0.8088597026043894  0.7930954217910767  1.0000
  Ru  Ru1       1.0  0.48092889587411475  0.7511553513560961  0.5422482267022133  1.0000
  Ge  Ge1       1.0  0.5171239002296854  0.6807044439349696  0.392414128780365  1.0000
  S   S1        1.0  0.45842289965796873  0.8261998681435893  0.7580694317817689  1.0000
  Pd  Pd1       1.0  0.846000712119747  0.7568564107024867  0.8052575826644898  1.0000
  Fe  Fe1       1.0  0.5354585530974507  0.657134886761147  0.4401414871215821  1.0000
  Sc  Sc1       1.0  0.7086757151657302  0.1738001318564107  0.1733182668685913  1.0000
  Rh  Rh1       1.0  0.46400705051127283  0.40910617756035667  0.8266817331314087  1.0000
  Cr  Cr1       1.0  0.15399928788025297  0.35606612750159544  0.5440779447555543  1.0000
  Pd  Pd2       1.0  0.6136042776061544  0.5393742246275527  0.6230513691902161  1.0000
  Cl  Cl1       1.0  0.5350709208879726  0.23902118692781057  0.7655776023864747  1.0000
  Si  Si1       1.0  0.6506284536074722  0.43274126348514896  0.7534671902656556  1.0000
