data_image0
_chemical_formula_structural       BeAlNiNeSHSrNaSrSKrGe
_chemical_formula_sum              "Be1 Al1 Ni1 Ne1 S2 H1 Sr2 Na1 Kr1 Ge1"
_cell_length_a       15.482187271118164
_cell_length_b       16.373455047607422
_cell_length_c       20.0
_cell_angle_alpha    90.0
_cell_angle_beta     90.0
_cell_angle_gamma    90.0

_space_group_name_H-M_alt    "P 1"
_space_group_IT_number       1

loop_
  _space_group_symop_operation_xyz
  'x, y, z'

loop_
  _atom_site_type_symbol
  _atom_site_label
  _atom_site_symmetry_multiplicity
  _atom_site_fract_x
  _atom_site_fract_y
  _atom_site_fract_z
  _atom_site_occupancy
  Be  Be1       1.0  0.8150487703466438  0.5519222369608334  0.7136019945144654  1.0000
  Al  Al1       1.0  0.4560743335848592  0.44988518279540834  0.3234224319458008  1.0000
  Ni  Ni1       1.0  0.7197246562052452  0.738415826325083  0.7709887027740479  1.0000
  Ne  Ne1       1.0  0.4369776706654142  0.8473138458852016  0.22901129722595215  1.0000
  S   S1        1.0  0.3731420453670481  0.7615532090979854  0.6463570833206177  1.0000
  H   H1        1.0  0.6287037975268338  0.42155442234442314  0.5529594480991363  1.0000
  Sr  Sr1       1.0  0.3037627392703698  0.5286040758090892  0.57716383934021  1.0000
  Na  Na1       1.0  0.6945305757888416  0.4706636880292009  0.5210024178028106  1.0000
  Sr  Sr2       1.0  0.5466091586845713  0.15268615411479838  0.4234103798866272  1.0000
  S   S2        1.0  0.8385241079815823  0.4389036716693036  0.4232720583677292  1.0000
  Kr  Kr1       1.0  0.36625396923171694  0.6839902238139716  0.4725552213029005  1.0000
  Ge  Ge1       1.0  0.16147589201841786  0.36445144690267445  0.4221815407276154  1.0000
