data_image0
_chemical_formula_structural       STiSTiS5Ti2S
_chemical_formula_sum              "S8 Ti4"
_cell_length_a       9.842318534851074
_cell_length_b       10.302962303161621
_cell_length_c       20.0
_cell_angle_alpha    90.0
_cell_angle_beta     90.0
_cell_angle_gamma    90.0

_space_group_name_H-M_alt    "P 1"
_space_group_IT_number       1

loop_
  _space_group_symop_operation_xyz
  'x, y, z'

loop_
  _atom_site_type_symbol
  _atom_site_label
  _atom_site_symmetry_multiplicity
  _atom_site_fract_x
  _atom_site_fract_y
  _atom_site_fract_z
  _atom_site_occupancy
  S   S1        1.0  0.010160179785336234  0.3832943322492033  0.6774888396263123  1.0000
  Ti  Ti1       1.0  0.9898398202146638  0.8003224019684844  0.667225730419159  1.0000
  S   S2        1.0  0.19501875662703227  0.34271802247413996  0.699493670463562  1.0000
  Ti  Ti2       1.0  0.31158172332925627  0.49891217509535624  0.803942632675171  1.0000
  S   S3        1.0  0.28032165530294845  0.39923101106971587  0.5858622670173645  1.0000
  S   S4        1.0  0.21877300051964943  0.9902940859850276  0.7271769762039185  1.0000
  S   S5        1.0  0.5219947646989913  0.772509198228453  0.6304678440093995  1.0000
  S   S6        1.0  0.3757918464841398  0.22132896756301398  0.40453594326972964  1.0000
  S   S7        1.0  0.14854154964541652  0.6035750629961442  0.25463166236877444  1.0000
  Ti  Ti3       1.0  0.5035709245428892  0.10310196132916566  0.39523881673812866  1.0000
  Ti  Ti4       1.0  0.4080915646448075  0.5837857857113832  0.5975364625453949  1.0000
  S   S8        1.0  0.2100355282329138  0.009705914014972455  0.19605736732482912  1.0000
