data_image0
_chemical_formula_structural       CAsTcBAsTiFeMoGaONeKr
_chemical_formula_sum              "C1 As2 Tc1 B1 Ti1 Fe1 Mo1 Ga1 O1 Ne1 Kr1"
_cell_length_a       17.23569107055664
_cell_length_b       14.914482116699219
_cell_length_c       20.0
_cell_angle_alpha    90.0
_cell_angle_beta     90.0
_cell_angle_gamma    90.0

_space_group_name_H-M_alt    "P 1"
_space_group_IT_number       1

loop_
  _space_group_symop_operation_xyz
  'x, y, z'

loop_
  _atom_site_type_symbol
  _atom_site_label
  _atom_site_symmetry_multiplicity
  _atom_site_fract_x
  _atom_site_fract_y
  _atom_site_fract_z
  _atom_site_occupancy
  C   C1        1.0  0.5660996018451793  0.49785568291654536  0.6124187827110291  1.0000
  As  As1       1.0  0.29037894902719713  0.38808887517386054  0.5328961610794067  1.0000
  Tc  Tc1       1.0  0.5274928152913982  0.4844349549031943  0.5915158748626709  1.0000
  B   B1        1.0  0.336301436867023  0.8167008846108004  0.6971686482429504  1.0000
  As  As2       1.0  0.6480438190659933  0.8323776863025744  0.1352504372596741  1.0000
  Ti  Ti1       1.0  0.5913823190116578  0.26063028903185936  0.8052422881126404  1.0000
  Fe  Fe1       1.0  0.6330101488236662  0.16762231369742556  0.6453168272972107  1.0000
  Mo  Mo1       1.0  0.6264500690867425  0.27821596028587053  0.864749562740326  1.0000
  Ga  Ga1       1.0  0.8549521184498453  0.34659440124182106  0.47307215332984925  1.0000
  O   O1        1.0  0.3416751360542938  0.5448240334656353  0.32323317527771  1.0000
  Ne  Ne1       1.0  0.46499641010102843  0.8300053430635576  0.6203663706779481  1.0000
  Kr  Kr1       1.0  0.14504788155015466  0.7818208656734894  0.5977089762687683  1.0000
