data_image0
_chemical_formula_structural       BCuKPdNBCoNeAgCuZrLi
_chemical_formula_sum              "B2 Cu2 K1 Pd1 N1 Co1 Ne1 Ag1 Zr1 Li1"
_cell_length_a       16.372364044189453
_cell_length_b       15.80404281616211
_cell_length_c       20.0
_cell_angle_alpha    90.0
_cell_angle_beta     90.0
_cell_angle_gamma    90.0

_space_group_name_H-M_alt    "P 1"
_space_group_IT_number       1

loop_
  _space_group_symop_operation_xyz
  'x, y, z'

loop_
  _atom_site_type_symbol
  _atom_site_label
  _atom_site_symmetry_multiplicity
  _atom_site_fract_x
  _atom_site_fract_y
  _atom_site_fract_z
  _atom_site_occupancy
  B   B1        1.0  0.5911559886875725  0.16145300674521806  0.46884385347366336  1.0000
  Cu  Cu1       1.0  0.3561091043349627  0.3263015078682142  0.0731879472732544  1.0000
  K   K1        1.0  0.5773700962180769  0.15818738708186345  0.9268120527267456  1.0000
  Pd  Pd1       1.0  0.2422923573545341  0.4507680997891591  0.6929267644882202  1.0000
  N   N1        1.0  0.8473036786359103  0.37688838800270824  0.14263367652893066  1.0000
  B   B2        1.0  0.49964275870199726  0.7010664390100255  0.30685986280441285  1.0000
  Co  Co1       1.0  0.4983627544812726  0.40444090361060453  0.7032260417938233  1.0000
  Ne  Ne1       1.0  0.4393856594267783  0.4669585958629721  0.1423804998397827  1.0000
  Ag  Ag1       1.0  0.15269632136408975  0.5079191555925932  0.5525845885276794  1.0000
  Cu  Cu2       1.0  0.8193582989838807  0.8418126129181365  0.1981064558029175  1.0000
  Zr  Zr1       1.0  0.23246762460690643  0.2805748219559322  0.5528523683547973  1.0000
  Li  Li1       1.0  0.35061429135279176  0.8381789872397225  0.2608449459075928  1.0000
