data_image0
_chemical_formula_structural       FCdVZrInCaZrBrTiPdCrC
_chemical_formula_sum              "F1 Cd1 V1 Zr2 In1 Ca1 Br1 Ti1 Pd1 Cr1 C1"
_cell_length_a       20.865768432617188
_cell_length_b       13.299479484558105
_cell_length_c       20.0
_cell_angle_alpha    90.0
_cell_angle_beta     90.0
_cell_angle_gamma    90.0

_space_group_name_H-M_alt    "P 1"
_space_group_IT_number       1

loop_
  _space_group_symop_operation_xyz
  'x, y, z'

loop_
  _atom_site_type_symbol
  _atom_site_label
  _atom_site_symmetry_multiplicity
  _atom_site_fract_x
  _atom_site_fract_y
  _atom_site_fract_z
  _atom_site_occupancy
  F   F1        1.0  0.5792637338669752  0.18797728158479626  0.3705708980560303  1.0000
  Cd  Cd1       1.0  0.8801865471834988  0.5526786725875666  0.26158671379089354  1.0000
  V   V1        1.0  0.11981345281650127  0.8120227184152037  0.2866519808769226  1.0000
  Zr  Zr1       1.0  0.5385062961668321  0.35296353343709425  0.8207000494003296  1.0000
  In  In1       1.0  0.6525175183497275  0.5809115825051997  0.6619363069534302  1.0000
  Ca  Ca1       1.0  0.3631825867356901  0.5037078195480769  0.3245165586471558  1.0000
  Zr  Zr2       1.0  0.62183555411899  0.5507874238599292  0.5479660570621491  1.0000
  Br  Br1       1.0  0.3215005555011156  0.68045206648876  0.4140906482934952  1.0000
  Ti  Ti1       1.0  0.3845686255492852  0.19470517940714271  0.6237196564674378  1.0000
  Pd  Pd1       1.0  0.45532819962518073  0.5019838143302703  0.36864293217659  1.0000
  Cr  Cr1       1.0  0.4692794948513996  0.6575830114556543  0.3916575312614441  1.0000
  C   C1        1.0  0.40459763670245324  0.5331006532386936  0.1792999505996704  1.0000
