data_image0
_chemical_formula_structural       CoTiBrRuNbNiCrMoCuHeBAr
_chemical_formula_sum              "Co1 Ti1 Br1 Ru1 Nb1 Ni1 Cr1 Mo1 Cu1 He1 B1 Ar1"
_cell_length_a       22.783918380737305
_cell_length_b       15.024734497070312
_cell_length_c       20.0
_cell_angle_alpha    90.0
_cell_angle_beta     90.0
_cell_angle_gamma    90.0

_space_group_name_H-M_alt    "P 1"
_space_group_IT_number       1

loop_
  _space_group_symop_operation_xyz
  'x, y, z'

loop_
  _atom_site_type_symbol
  _atom_site_label
  _atom_site_symmetry_multiplicity
  _atom_site_fract_x
  _atom_site_fract_y
  _atom_site_fract_z
  _atom_site_occupancy
  Co  Co1       1.0  0.8020746383420808  0.543302244376491  0.455681985616684  1.0000
  Ti  Ti1       1.0  0.4061944055985035  0.2731210125870731  0.602506696432829  1.0000
  Br  Br1       1.0  0.5571639734256092  0.30864691312543097  0.7635142505168915  1.0000
  Ru  Ru1       1.0  0.6201463989394186  0.3066457643798221  0.6437938988208771  1.0000
  Nb  Nb1       1.0  0.6804046935477321  0.833607708642873  0.2334955632686615  1.0000
  Ni  Ni1       1.0  0.47470268728336207  0.31294644171953595  0.7665044367313385  1.0000
  Cr  Cr1       1.0  0.572368559567396  0.4285071951079483  0.7374779403209687  1.0000
  Mo  Mo1       1.0  0.5831713175059552  0.31058704785200186  0.5472160518169403  1.0000
  Cu  Cu1       1.0  0.8902734833305218  0.7331590516939333  0.5629355788230896  1.0000
  He  He1       1.0  0.10972651666947808  0.6090582348899773  0.5036031126976014  1.0000
  B   B1        1.0  0.8342664939911689  0.16639229135712696  0.6307875901460648  1.0000
  Ar  Ar1       1.0  0.5581606124901478  0.343543083926854  0.7357339918613435  1.0000
