data_image0
_chemical_formula_structural       ZrMnNZrScKClGaSiMnCaRu
_chemical_formula_sum              "Zr2 Mn2 N1 Sc1 K1 Cl1 Ga1 Si1 Ca1 Ru1"
_cell_length_a       17.02910614013672
_cell_length_b       15.538398742675781
_cell_length_c       20.0
_cell_angle_alpha    90.0
_cell_angle_beta     90.0
_cell_angle_gamma    90.0

_space_group_name_H-M_alt    "P 1"
_space_group_IT_number       1

loop_
  _space_group_symop_operation_xyz
  'x, y, z'

loop_
  _atom_site_type_symbol
  _atom_site_label
  _atom_site_symmetry_multiplicity
  _atom_site_fract_x
  _atom_site_fract_y
  _atom_site_fract_z
  _atom_site_occupancy
  Zr  Zr1       1.0  0.43884214444729686  0.4651019636759942  0.34573488831520083  1.0000
  Mn  Mn1       1.0  0.31559564203403256  0.6046319453548451  0.6040971487760545  1.0000
  N   N1        1.0  0.1881930742473586  0.4983383579396229  0.6009519636631012  1.0000
  Zr  Zr2       1.0  0.6728178948710126  0.5331402181659677  0.5914730921387673  1.0000
  Sc  Sc1       1.0  0.8531925153413539  0.4815815431914753  0.7003952085971833  1.0000
  K   K1        1.0  0.2819501725776297  0.836141147173617  0.3467702925205231  1.0000
  Cl  Cl1       1.0  0.6982712891665424  0.8391082760210522  0.43404012322425845  1.0000
  Ga  Ga1       1.0  0.3280341847745492  0.44503531367579785  0.5062938928604126  1.0000
  Si  Si1       1.0  0.1468074846586462  0.5728247954728576  0.44621873497962955  1.0000
  Mn  Mn2       1.0  0.7972766296870261  0.16089172397894777  0.24079244732856753  1.0000
  Ca  Ca1       1.0  0.59725383102625  0.19132240938423853  0.5714111551642418  1.0000
  Ru  Ru1       1.0  0.4062154183909869  0.4075350382540143  0.7592075526714326  1.0000
