data_image0
_chemical_formula_structural       ClAgFKrGePdOZrFeVCdSc
_chemical_formula_sum              "Cl1 Ag1 F1 Kr1 Ge1 Pd1 O1 Zr1 Fe1 V1 Cd1 Sc1"
_cell_length_a       12.945402145385742
_cell_length_b       20.567245483398438
_cell_length_c       20.0
_cell_angle_alpha    90.0
_cell_angle_beta     90.0
_cell_angle_gamma    90.0

_space_group_name_H-M_alt    "P 1"
_space_group_IT_number       1

loop_
  _space_group_symop_operation_xyz
  'x, y, z'

loop_
  _atom_site_type_symbol
  _atom_site_label
  _atom_site_symmetry_multiplicity
  _atom_site_fract_x
  _atom_site_fract_y
  _atom_site_fract_z
  _atom_site_occupancy
  Cl  Cl1       1.0  0.2217305586508797  0.4409092394993675  0.648025780916214  1.0000
  Ag  Ag1       1.0  0.4595656492835915  0.5696422216446756  0.6178975939750672  1.0000
  F   F1        1.0  0.4700304908459687  0.18468454516115868  0.7973973393440247  1.0000
  Kr  Kr1       1.0  0.6183647196255142  0.5717956604325634  0.6333185911178589  1.0000
  Ge  Ge1       1.0  0.8068812315652636  0.8784475283683075  0.33973655700683597  1.0000
  Pd  Pd1       1.0  0.19311876843473647  0.47628297270929854  0.44417376518249513  1.0000
  O   O1        1.0  0.6624712101703242  0.6963147282429268  0.8533751487731934  1.0000
  Zr  Zr1       1.0  0.21534025519517191  0.25112376613163484  0.14662485122680666  1.0000
  Fe  Fe1       1.0  0.4182288169693209  0.6413117479013573  0.5960286676883698  1.0000
  V   V1        1.0  0.6860793861872763  0.5662516368114726  0.42758252620697024  1.0000
  Cd  Cd1       1.0  0.7144766339738555  0.12155247163169237  0.6588292092084885  1.0000
  Sc  Sc1       1.0  0.4840268474002003  0.5079716718012159  0.6114342093467713  1.0000
