data_image0
_chemical_formula_structural       CaTcMoKrClRhRuClFTiCuZr
_chemical_formula_sum              "Ca1 Tc1 Mo1 Kr1 Cl2 Rh1 Ru1 F1 Ti1 Cu1 Zr1"
_cell_length_a       14.14826774597168
_cell_length_b       18.384592056274414
_cell_length_c       20.0
_cell_angle_alpha    90.0
_cell_angle_beta     90.0
_cell_angle_gamma    90.0

_space_group_name_H-M_alt    "P 1"
_space_group_IT_number       1

loop_
  _space_group_symop_operation_xyz
  'x, y, z'

loop_
  _atom_site_type_symbol
  _atom_site_label
  _atom_site_symmetry_multiplicity
  _atom_site_fract_x
  _atom_site_fract_y
  _atom_site_fract_z
  _atom_site_occupancy
  Ca  Ca1       1.0  0.6790644425067545  0.5425122403455775  0.4970801115036011  1.0000
  Tc  Tc1       1.0  0.6127529470585623  0.2492889820238388  0.271635776758194  1.0000
  Mo  Mo1       1.0  0.7403179167665958  0.6248466487758202  0.3599266350269318  1.0000
  Kr  Kr1       1.0  0.5917013692429272  0.1359834361484667  0.728364223241806  1.0000
  Cl  Cl1       1.0  0.6191154976709973  0.24751701997578335  0.6025534436106682  1.0000
  Rh  Rh1       1.0  0.6057327168784157  0.6484693252421639  0.62510724067688  1.0000
  Ru  Ru1       1.0  0.6496922313345782  0.8640165638515332  0.5878144282847643  1.0000
  Cl  Cl2       1.0  0.27900755881116246  0.34809973128456273  0.5508361160755157  1.0000
  F   F1        1.0  0.17670008541654114  0.4127766767325589  0.4283933937549591  1.0000
  Ti  Ti1       1.0  0.5937831773109752  0.6145688098160553  0.46359098553657535  1.0000
  Cu  Cu1       1.0  0.6465258892939075  0.8505433652103301  0.7260773479938507  1.0000
  Zr  Zr1       1.0  0.823299914583459  0.3837672678017363  0.5178682506084442  1.0000
