data_image0
_chemical_formula_structural       Ar2AgPOHeAsPCrBrBeRu
_chemical_formula_sum              "Ar2 Ag1 P2 O1 He1 As1 Cr1 Br1 Be1 Ru1"
_cell_length_a       18.05282211303711
_cell_length_b       19.474185943603516
_cell_length_c       20.0
_cell_angle_alpha    90.0
_cell_angle_beta     90.0
_cell_angle_gamma    90.0

_space_group_name_H-M_alt    "P 1"
_space_group_IT_number       1

loop_
  _space_group_symop_operation_xyz
  'x, y, z'

loop_
  _atom_site_type_symbol
  _atom_site_label
  _atom_site_symmetry_multiplicity
  _atom_site_fract_x
  _atom_site_fract_y
  _atom_site_fract_z
  _atom_site_occupancy
  Ar  Ar1       1.0  0.576332686221629  0.6953951741034009  0.5547389805316926  1.0000
  Ar  Ar2       1.0  0.6337071645297488  0.1283750463512438  0.37162345051765444  1.0000
  Ag  Ag1       1.0  0.4967101134319956  0.3504128933538438  0.3953851401805878  1.0000
  P   P1        1.0  0.34819363228981925  0.40117569574857476  0.5365901350975036  1.0000
  O   O1        1.0  0.47644358833785283  0.870860929422506  0.5040164098143578  1.0000
  He  He1       1.0  0.13848251662620478  0.6171776828041146  0.6011729300022126  1.0000
  As  As1       1.0  0.626129333098641  0.7280249316313032  0.46217471063137056  1.0000
  P   P2        1.0  0.47285771274600685  0.4174147303616171  0.6612270176410675  1.0000
  Cr  Cr1       1.0  0.5568395136736046  0.2423676176156078  0.349418967962265  1.0000
  Br  Br1       1.0  0.678398020555574  0.7622353326839099  0.3143734037876129  1.0000
  Be  Be1       1.0  0.8615174833737952  0.5160071896337365  0.6856265962123871  1.0000
  Ru  Ru1       1.0  0.46613557446276643  0.8716249536487561  0.5292653918266297  1.0000
