data_image0
_chemical_formula_structural       SiMnNArIn2RbSCCaNbTc
_chemical_formula_sum              "Si1 Mn1 N1 Ar1 In2 Rb1 S1 C1 Ca1 Nb1 Tc1"
_cell_length_a       18.074970245361328
_cell_length_b       11.754630088806152
_cell_length_c       20.0
_cell_angle_alpha    90.0
_cell_angle_beta     90.0
_cell_angle_gamma    90.0

_space_group_name_H-M_alt    "P 1"
_space_group_IT_number       1

loop_
  _space_group_symop_operation_xyz
  'x, y, z'

loop_
  _atom_site_type_symbol
  _atom_site_label
  _atom_site_symmetry_multiplicity
  _atom_site_fract_x
  _atom_site_fract_y
  _atom_site_fract_z
  _atom_site_occupancy
  Si  Si1       1.0  0.30213115562829695  0.5136689388844686  0.30262365341186526  1.0000
  Mn  Mn1       1.0  0.3130626292013182  0.7825441460443825  0.5560935318470002  1.0000
  N   N1        1.0  0.4317796561543356  0.4285544633321983  0.33535453081130984  1.0000
  Ar  Ar1       1.0  0.5455624854244557  0.21268213988047502  0.40149865150451663  1.0000
  In  In1       1.0  0.13831281413265883  0.4860452794150852  0.7731253385543824  1.0000
  In  In2       1.0  0.8616871858673412  0.787317860119525  0.5119355609640479  1.0000
  Rb  Rb1       1.0  0.7234746725844696  0.5446592765534043  0.2268746614456177  1.0000
  S   S1        1.0  0.44080657269991314  0.5898388310676062  0.49477625191211705  1.0000
  C   C1        1.0  0.5232997792431586  0.7204281479321573  0.7588706016540527  1.0000
  Ca  Ca1       1.0  0.4167090643529408  0.2318410903043197  0.26282835006713867  1.0000
  Nb  Nb1       1.0  0.27850407956954526  0.5964135342286553  0.5730672657489777  1.0000
  Tc  Tc1       1.0  0.31656272522843376  0.5048586742836447  0.5911757528781891  1.0000
