data_image0
_chemical_formula_structural       CoPTiCoMgFLiNRuRbGaMo
_chemical_formula_sum              "Co2 P1 Ti1 Mg1 F1 Li1 N1 Ru1 Rb1 Ga1 Mo1"
_cell_length_a       18.849882125854492
_cell_length_b       17.92339515686035
_cell_length_c       20.0
_cell_angle_alpha    90.0
_cell_angle_beta     90.0
_cell_angle_gamma    90.0

_space_group_name_H-M_alt    "P 1"
_space_group_IT_number       1

loop_
  _space_group_symop_operation_xyz
  'x, y, z'

loop_
  _atom_site_type_symbol
  _atom_site_label
  _atom_site_symmetry_multiplicity
  _atom_site_fract_x
  _atom_site_fract_y
  _atom_site_fract_z
  _atom_site_occupancy
  Co  Co1       1.0  0.5771620975431274  0.6511788483286353  0.2287827730178833  1.0000
  P   P1        1.0  0.13262681139806293  0.3573873637719869  0.4390347346663475  1.0000
  Ti  Ti1       1.0  0.5830066367040729  0.37602672664826436  0.3996861338615418  1.0000
  Co  Co2       1.0  0.18222663501021527  0.4637678725523759  0.5842040777206421  1.0000
  Mg  Mg1       1.0  0.38899094504605847  0.43459857517611167  0.42134594917297363  1.0000
  F   F1        1.0  0.6138538933478853  0.15539853667454825  0.41557419300079346  1.0000
  Li  Li1       1.0  0.3642089432038618  0.30399229048227094  0.5099395215511322  1.0000
  N   N1        1.0  0.8673731886019371  0.3016142762158348  0.5328002810478211  1.0000
  Ru  Ru1       1.0  0.8221306720071414  0.6211260528735649  0.6566036224365235  1.0000
  Rb  Rb1       1.0  0.745092986103993  0.5053830424024806  0.40042463541030887  1.0000
  Ga  Ga1       1.0  0.6503774322515142  0.8605175046964352  0.7712172269821167  1.0000
  Mo  Mo1       1.0  0.6471283801388822  0.13948249530356482  0.43890380263328554  1.0000
