data_image0
_chemical_formula_structural       CrAgNbFeKrPNNiKrFeAlIn
_chemical_formula_sum              "Cr1 Ag1 Nb1 Fe2 Kr2 P1 N1 Ni1 Al1 In1"
_cell_length_a       16.01070213317871
_cell_length_b       19.020788192749023
_cell_length_c       20.0
_cell_angle_alpha    90.0
_cell_angle_beta     90.0
_cell_angle_gamma    90.0

_space_group_name_H-M_alt    "P 1"
_space_group_IT_number       1

loop_
  _space_group_symop_operation_xyz
  'x, y, z'

loop_
  _atom_site_type_symbol
  _atom_site_label
  _atom_site_symmetry_multiplicity
  _atom_site_fract_x
  _atom_site_fract_y
  _atom_site_fract_z
  _atom_site_occupancy
  Cr  Cr1       1.0  0.385766711795195  0.8088006603444657  0.28066463470458985  1.0000
  Ag  Ag1       1.0  0.8438544580502367  0.5610801709041913  0.8678058147430421  1.0000
  Nb  Nb1       1.0  0.46230378907197917  0.502378465211533  0.5021804302930832  1.0000
  Fe  Fe1       1.0  0.6154746647663112  0.39177121218213806  0.5396400101482869  1.0000
  Kr  Kr1       1.0  0.42040939127273186  0.131435142154258  0.6483527421951294  1.0000
  P   P1        1.0  0.5609215848430926  0.868564857845742  0.532678096368909  1.0000
  N   N1        1.0  0.4939670459515054  0.3089583710834665  0.132194185256958  1.0000
  Ni  Ni1       1.0  0.5669936506302731  0.2018349497827548  0.5237920269370079  1.0000
  Kr  Kr2       1.0  0.1686674930687417  0.31978162465074755  0.6237268269062043  1.0000
  Fe  Fe2       1.0  0.48160405095459147  0.3926377751589868  0.34395133256912236  1.0000
  Al  Al1       1.0  0.15614554194976327  0.48361721725956647  0.590296596288681  1.0000
  In  In1       1.0  0.17908997847208893  0.3685223591761679  0.41445676088333133  1.0000
