data_image0
_chemical_formula_structural       AgRbZrGaVInHScSeCSeNi
_chemical_formula_sum              "Ag1 Rb1 Zr1 Ga1 V1 In1 H1 Sc1 Se2 C1 Ni1"
_cell_length_a       14.383907318115234
_cell_length_b       26.518150329589844
_cell_length_c       20.0
_cell_angle_alpha    90.0
_cell_angle_beta     90.0
_cell_angle_gamma    90.0

_space_group_name_H-M_alt    "P 1"
_space_group_IT_number       1

loop_
  _space_group_symop_operation_xyz
  'x, y, z'

loop_
  _atom_site_type_symbol
  _atom_site_label
  _atom_site_symmetry_multiplicity
  _atom_site_fract_x
  _atom_site_fract_y
  _atom_site_fract_z
  _atom_site_occupancy
  Ag  Ag1       1.0  0.5639465283551531  0.4925340020116307  0.5138980805873871  1.0000
  Rb  Rb1       1.0  0.6995295578619629  0.09427506993380204  0.4967972129583359  1.0000
  Zr  Zr1       1.0  0.8261946366082286  0.654331306837847  0.7249467670917511  1.0000
  Ga  Ga1       1.0  0.8011076490689283  0.5002591724190809  0.38151085972785953  1.0000
  V   V1        1.0  0.6154602532583862  0.47444259566250746  0.6561240494251251  1.0000
  In  In1       1.0  0.48898567523414366  0.6652694860904882  0.7483307898044587  1.0000
  H   H1        1.0  0.6265242046806191  0.3242520686681894  0.518422943353653  1.0000
  Sc  Sc1       1.0  0.24877695320839482  0.9057249300661979  0.2516692101955414  1.0000
  Se  Se1       1.0  0.6058034429694575  0.6321739058664987  0.34784575104713444  1.0000
  C   C1        1.0  0.7174687487982857  0.6121366812034224  0.3296486794948578  1.0000
  Se  Se2       1.0  0.7546662317289702  0.47928804505281825  0.4169792652130127  1.0000
  Ni  Ni1       1.0  0.17380536339177144  0.609889932841109  0.6457547843456268  1.0000
