data_image0
_chemical_formula_structural       NCrAsRuClNaMnVMgNiBrCr
_chemical_formula_sum              "N1 Cr2 As1 Ru1 Cl1 Na1 Mn1 V1 Mg1 Ni1 Br1"
_cell_length_a       17.977336883544922
_cell_length_b       18.242515563964844
_cell_length_c       20.0
_cell_angle_alpha    90.0
_cell_angle_beta     90.0
_cell_angle_gamma    90.0

_space_group_name_H-M_alt    "P 1"
_space_group_IT_number       1

loop_
  _space_group_symop_operation_xyz
  'x, y, z'

loop_
  _atom_site_type_symbol
  _atom_site_label
  _atom_site_symmetry_multiplicity
  _atom_site_fract_x
  _atom_site_fract_y
  _atom_site_fract_z
  _atom_site_occupancy
  N   N1        1.0  0.4754041170245792  0.8412883931674475  0.6349352300167084  1.0000
  Cr  Cr1       1.0  0.7171110405799199  0.47973246132087427  0.34398300647735597  1.0000
  As  As1       1.0  0.6988337880314074  0.656587843772048  0.1873568892478943  1.0000
  Ru  Ru1       1.0  0.860936047460336  0.5242255320340197  0.6362744867801666  1.0000
  Cl  Cl1       1.0  0.5358055171600867  0.86295752280452  0.4340963363647461  1.0000
  Na  Na1       1.0  0.3764764115781118  0.30141102640518963  0.4661030411720276  1.0000
  Mn  Mn1       1.0  0.4441898320605536  0.13704247719548004  0.7217520117759705  1.0000
  V   V1        1.0  0.14512651690099693  0.3030589067798985  0.5373044606298208  1.0000
  Mg  Mg1       1.0  0.6482962561836215  0.39799286949679286  0.8126431107521057  1.0000
  Ni  Ni1       1.0  0.139063952539664  0.645059163567304  0.35819584131240845  1.0000
  Br  Br1       1.0  0.3665328309904553  0.36964156252626945  0.5382184430956841  1.0000
  Cr  Cr2       1.0  0.4677780218607319  0.37226721636179083  0.6063838481903077  1.0000
