data_image0
_chemical_formula_structural       ScGeKrRhSNiCdCrTiRuCaAg
_chemical_formula_sum              "Sc1 Ge1 Kr1 Rh1 S1 Ni1 Cd1 Cr1 Ti1 Ru1 Ca1 Ag1"
_cell_length_a       17.99692153930664
_cell_length_b       12.829873085021973
_cell_length_c       20.0
_cell_angle_alpha    90.0
_cell_angle_beta     90.0
_cell_angle_gamma    90.0

_space_group_name_H-M_alt    "P 1"
_space_group_IT_number       1

loop_
  _space_group_symop_operation_xyz
  'x, y, z'

loop_
  _atom_site_type_symbol
  _atom_site_label
  _atom_site_symmetry_multiplicity
  _atom_site_fract_x
  _atom_site_fract_y
  _atom_site_fract_z
  _atom_site_occupancy
  Sc  Sc1       1.0  0.514671523553956  0.8051422657548667  0.7118779540061951  1.0000
  Ge  Ge1       1.0  0.40065993959559415  0.6928768149073778  0.7477431178092957  1.0000
  Kr  Kr1       1.0  0.1389126663783958  0.5581100965543473  0.4757378280162812  1.0000
  Rh  Rh1       1.0  0.5934257350112394  0.543025086063826  0.4974348783493042  1.0000
  S   S1        1.0  0.248981374469163  0.6526758810629255  0.25225688219070436  1.0000
  Ni  Ni1       1.0  0.7436674003266364  0.7976721642607646  0.48122250437736513  1.0000
  Cd  Cd1       1.0  0.8610873336216043  0.19485773424513328  0.49401246905326845  1.0000
  Cr  Cr1       1.0  0.402746091386106  0.709394284825271  0.33048352003097536  1.0000
  Ti  Ti1       1.0  0.41989832092814744  0.5478116419029759  0.6283281683921814  1.0000
  Ru  Ru1       1.0  0.39408968536082084  0.7541224336671325  0.5123225748538971  1.0000
  Ca  Ca1       1.0  0.5328021054901824  0.26743258448221996  0.5972623437643051  1.0000
  Ag  Ag1       1.0  0.16573568819901713  0.5703358937769124  0.6502950608730317  1.0000
