data_image0
_chemical_formula_structural       CdNArHeSTcNeSrPdGaCF
_chemical_formula_sum              "Cd1 N1 Ar1 He1 S1 Tc1 Ne1 Sr1 Pd1 Ga1 C1 F1"
_cell_length_a       17.196575164794922
_cell_length_b       15.524090766906738
_cell_length_c       20.0
_cell_angle_alpha    90.0
_cell_angle_beta     90.0
_cell_angle_gamma    90.0

_space_group_name_H-M_alt    "P 1"
_space_group_IT_number       1

loop_
  _space_group_symop_operation_xyz
  'x, y, z'

loop_
  _atom_site_type_symbol
  _atom_site_label
  _atom_site_symmetry_multiplicity
  _atom_site_fract_x
  _atom_site_fract_y
  _atom_site_fract_z
  _atom_site_occupancy
  Cd  Cd1       1.0  0.6521998064431977  0.6854527859333738  0.5463597893714905  1.0000
  N   N1        1.0  0.6915476494566635  0.2957428495270573  0.4642533421516419  1.0000
  Ar  Ar1       1.0  0.16406722252920877  0.320930855698997  0.46371129453182225  1.0000
  He  He1       1.0  0.3525585533312156  0.41858576931530894  0.36230337619781494  1.0000
  S   S1        1.0  0.14537780538684852  0.5774748345777285  0.3809782147407532  1.0000
  Tc  Tc1       1.0  0.5436474346375616  0.4613229088321803  0.30447111129760746  1.0000
  Ne  Ne1       1.0  0.18495784779609667  0.4973121894886464  0.32691707611083987  1.0000
  Sr  Sr1       1.0  0.8546221946131515  0.3074293384233344  0.6955288887023926  1.0000
  Pd  Pd1       1.0  0.5712136538901357  0.3958521814066663  0.5013544753193856  1.0000
  Ga  Ga1       1.0  0.22174323432961868  0.8389599727586404  0.40783985257148747  1.0000
  C   C1        1.0  0.240283513133047  0.16104002724135957  0.5421823024749756  1.0000
  F   F1        1.0  0.431209656949378  0.22993179708135839  0.4515368789434433  1.0000
