data_image0
_chemical_formula_structural       PBAlHeClCaHMgNiAsKrMo
_chemical_formula_sum              "P1 B1 Al1 He1 Cl1 Ca1 H1 Mg1 Ni1 As1 Kr1 Mo1"
_cell_length_a       13.986926078796387
_cell_length_b       17.41962432861328
_cell_length_c       20.0
_cell_angle_alpha    90.0
_cell_angle_beta     90.0
_cell_angle_gamma    90.0

_space_group_name_H-M_alt    "P 1"
_space_group_IT_number       1

loop_
  _space_group_symop_operation_xyz
  'x, y, z'

loop_
  _atom_site_type_symbol
  _atom_site_label
  _atom_site_symmetry_multiplicity
  _atom_site_fract_x
  _atom_site_fract_y
  _atom_site_fract_z
  _atom_site_occupancy
  P   P1        1.0  0.6688123828952388  0.8564837017814714  0.6110092580318451  1.0000
  B   B1        1.0  0.8212616563556521  0.7734476179526766  0.6567856788635255  1.0000
  Al  Al1       1.0  0.7021753658287966  0.7408953891972977  0.5251138508319855  1.0000
  He  He1       1.0  0.7384160720233487  0.14351629821852863  0.3318801820278168  1.0000
  Cl  Cl1       1.0  0.7829418846741403  0.4711001297506816  0.7247924506664276  1.0000
  Ca  Ca1       1.0  0.23234689191690777  0.7091248877683978  0.7315660059452057  1.0000
  H   H1        1.0  0.44160440682091767  0.45939453787953444  0.7308321058750153  1.0000
  Mg  Mg1       1.0  0.1787383436443479  0.5066447336004993  0.42068275809288025  1.0000
  Ni  Ni1       1.0  0.4255495656555429  0.45317833054123  0.626359260082245  1.0000
  As  As1       1.0  0.4279578156944926  0.4129896172081157  0.380487996339798  1.0000
  Kr  Kr1       1.0  0.581269749709454  0.6215520843598419  0.4647564828395844  1.0000
  Mo  Mo1       1.0  0.7635025965892684  0.7089056734443605  0.26843399405479434  1.0000
