data_image0
_chemical_formula_structural       OCdBNeInYMnZrGaCaZrNe
_chemical_formula_sum              "O1 Cd1 B1 Ne2 In1 Y1 Mn1 Zr2 Ga1 Ca1"
_cell_length_a       14.204913139343262
_cell_length_b       20.008771896362305
_cell_length_c       20.0
_cell_angle_alpha    90.0
_cell_angle_beta     90.0
_cell_angle_gamma    90.0

_space_group_name_H-M_alt    "P 1"
_space_group_IT_number       1

loop_
  _space_group_symop_operation_xyz
  'x, y, z'

loop_
  _atom_site_type_symbol
  _atom_site_label
  _atom_site_symmetry_multiplicity
  _atom_site_fract_x
  _atom_site_fract_y
  _atom_site_fract_z
  _atom_site_occupancy
  O   O1        1.0  0.44593131213565207  0.539944423613148  0.5728914380073548  1.0000
  Cd  Cd1       1.0  0.6470249315648055  0.5825149996058285  0.804373586177826  1.0000
  B   B1        1.0  0.17599545274832087  0.3944180556642532  0.7567340135574341  1.0000
  Ne  Ne1       1.0  0.6796613748160364  0.7209805331733642  0.498433256149292  1.0000
  In  In1       1.0  0.7563917298442  0.41190325326330585  0.37463322877883914  1.0000
  Y   Y1        1.0  0.6867044231356292  0.12494518776716793  0.6246399953961372  1.0000
  Mn  Mn1       1.0  0.39819377981677123  0.29322224577824263  0.7479797840118408  1.0000
  Zr  Zr1       1.0  0.824004547251679  0.49766355112346483  0.5025094985961914  1.0000
  Ga  Ga1       1.0  0.775981590649866  0.31147929494119314  0.19562641382217408  1.0000
  Ca  Ca1       1.0  0.3585725321587592  0.6104827358625191  0.38268967866897585  1.0000
  Zr  Zr2       1.0  0.5966250489847855  0.6714736240199215  0.6679964929819108  1.0000
  Ne  Ne2       1.0  0.3144380880314249  0.875054812232832  0.40307308435440065  1.0000
