data_image0
_chemical_formula_structural       RbPNeRuCrCaSiCrFeScMgAg
_chemical_formula_sum              "Rb1 P1 Ne1 Ru1 Cr2 Ca1 Si1 Fe1 Sc1 Mg1 Ag1"
_cell_length_a       23.558555603027344
_cell_length_b       14.899948120117188
_cell_length_c       20.0
_cell_angle_alpha    90.0
_cell_angle_beta     90.0
_cell_angle_gamma    90.0

_space_group_name_H-M_alt    "P 1"
_space_group_IT_number       1

loop_
  _space_group_symop_operation_xyz
  'x, y, z'

loop_
  _atom_site_type_symbol
  _atom_site_label
  _atom_site_symmetry_multiplicity
  _atom_site_fract_x
  _atom_site_fract_y
  _atom_site_fract_z
  _atom_site_occupancy
  Rb  Rb1       1.0  0.5777800157033965  0.6383492627367808  0.22763602733612062  1.0000
  P   P1        1.0  0.6149199026382938  0.2795238434770498  0.49926875680685046  1.0000
  Ne  Ne1       1.0  0.6309431801952611  0.16778581910796192  0.7723639726638795  1.0000
  Ru  Ru1       1.0  0.8938814398418067  0.552497697732577  0.4838995009660721  1.0000
  Cr  Cr1       1.0  0.10611856015819335  0.37102820266392245  0.6009161889553071  1.0000
  Ca  Ca1       1.0  0.5792547088329906  0.23803020956330012  0.5750362396240235  1.0000
  Si  Si1       1.0  0.2920701814553541  0.2622003132030972  0.24968764781951905  1.0000
  Cr  Cr2       1.0  0.6945343865198857  0.4871271280452399  0.5140867337584496  1.0000
  Fe  Fe1       1.0  0.8421300002558401  0.2874447443017441  0.2810502290725708  1.0000
  Sc  Sc1       1.0  0.3993426125542324  0.832214180892038  0.3415844798088074  1.0000
  Mg  Mg1       1.0  0.25462894370126693  0.7685485500003584  0.42713892459869385  1.0000
  Ag  Ag1       1.0  0.3681350670219929  0.8037038919264339  0.26405675411224366  1.0000
