data_image0
_chemical_formula_structural       K2SeHInSiAlGaMgSrLiCo
_chemical_formula_sum              "K2 Se1 H1 In1 Si1 Al1 Ga1 Mg1 Sr1 Li1 Co1"
_cell_length_a       16.05306053161621
_cell_length_b       18.51361656188965
_cell_length_c       20.0
_cell_angle_alpha    90.0
_cell_angle_beta     90.0
_cell_angle_gamma    90.0

_space_group_name_H-M_alt    "P 1"
_space_group_IT_number       1

loop_
  _space_group_symop_operation_xyz
  'x, y, z'

loop_
  _atom_site_type_symbol
  _atom_site_label
  _atom_site_symmetry_multiplicity
  _atom_site_fract_x
  _atom_site_fract_y
  _atom_site_fract_z
  _atom_site_occupancy
  K   K1        1.0  0.7586051955301222  0.5714355954643435  0.31124507188797  1.0000
  K   K2        1.0  0.3408748599613589  0.13503575760366773  0.5150115042924881  1.0000
  Se  Se1       1.0  0.6623259044485267  0.5335557726616698  0.6602794528007507  1.0000
  H   H1        1.0  0.3745499277781415  0.75340601528857  0.7275739312171936  1.0000
  In  In1       1.0  0.7405377454114436  0.8649642423963323  0.37975529432296756  1.0000
  Si  Si1       1.0  0.2465821898057216  0.8340407482969859  0.2724260687828064  1.0000
  Al  Al1       1.0  0.7215627545988339  0.5891120740687626  0.6918865323066712  1.0000
  Ga  Ga1       1.0  0.8442664565379109  0.6887391674025163  0.38584235906600955  1.0000
  Mg  Mg1       1.0  0.7838997177781023  0.6934164614169089  0.657775342464447  1.0000
  Sr  Sr1       1.0  0.1557335434620891  0.7282440923149484  0.46897263526916505  1.0000
  Li  Li1       1.0  0.2999965424758036  0.5434534650970327  0.6138799250125886  1.0000
  Co  Co1       1.0  0.3946600647757059  0.7538538739172553  0.46806008219718936  1.0000
