data_image0
_chemical_formula_structural       MnMoBeInSrArCdPInCNbGeClCaGa
_chemical_formula_sum              "Mn1 Mo1 Be1 In2 Sr1 Ar1 Cd1 P1 C1 Nb1 Ge1 Cl1 Ca1 Ga1"
_cell_length_a       22.069496154785156
_cell_length_b       20.59456443786621
_cell_length_c       20.0
_cell_angle_alpha    90.0
_cell_angle_beta     90.0
_cell_angle_gamma    90.0

_space_group_name_H-M_alt    "P 1"
_space_group_IT_number       1

loop_
  _space_group_symop_operation_xyz
  'x, y, z'

loop_
  _atom_site_type_symbol
  _atom_site_label
  _atom_site_symmetry_multiplicity
  _atom_site_fract_x
  _atom_site_fract_y
  _atom_site_fract_z
  _atom_site_occupancy
  Mn  Mn1       1.0  0.6307595119841615  0.6192885647516185  0.5517881929874421  1.0000
  Mo  Mo1       1.0  0.1347084112019492  0.121391253869073  0.7436496138572694  1.0000
  Be  Be1       1.0  0.8649112878985085  0.42353695995631574  0.3657698750495911  1.0000
  In  In1       1.0  0.5672822381687238  0.776636740247704  0.47323478034231814  1.0000
  Sr  Sr1       1.0  0.4358876670026858  0.596642528865292  0.5296050369739532  1.0000
  Ar  Ar1       1.0  0.8176552577909236  0.6769621447887438  0.5362191438674927  1.0000
  Cd  Cd1       1.0  0.5542746359102055  0.6266213500868675  0.8179699778556824  1.0000
  P   P1        1.0  0.229929758576178  0.878608746130927  0.6631161332130433  1.0000
  In  In2       1.0  0.8867214899317004  0.6270713160650496  0.6462015748023987  1.0000
  C   C1        1.0  0.2464019956922494  0.5064856383044027  0.7402711987495423  1.0000
  Nb  Nb1       1.0  0.5624098428782454  0.7935457272773664  0.08556348085403442  1.0000
  Ge  Ge1       1.0  0.6060744315504618  0.7061962264724103  0.6045075535774231  1.0000
  Cl  Cl1       1.0  0.11327851006829968  0.580186280450731  0.9144365191459656  1.0000
  Ca  Ca1       1.0  0.5068147408401099  0.3364324815329647  0.5003343492746354  1.0000
  Ga  Ga1       1.0  0.5543909634983734  0.4706635044019055  0.323252272605896  1.0000
