data_image0
_chemical_formula_structural       NaHBeBrFArBNbMoYPMgCoSeSi
_chemical_formula_sum              "Na1 H1 Be1 Br1 F1 Ar1 B1 Nb1 Mo1 Y1 P1 Mg1 Co1 Se1 Si1"
_cell_length_a       15.988611221313477
_cell_length_b       17.167316436767578
_cell_length_c       20.0
_cell_angle_alpha    90.0
_cell_angle_beta     90.0
_cell_angle_gamma    90.0

_space_group_name_H-M_alt    "P 1"
_space_group_IT_number       1

loop_
  _space_group_symop_operation_xyz
  'x, y, z'

loop_
  _atom_site_type_symbol
  _atom_site_label
  _atom_site_symmetry_multiplicity
  _atom_site_fract_x
  _atom_site_fract_y
  _atom_site_fract_z
  _atom_site_occupancy
  Na  Na1       1.0  0.15636129776346036  0.532685144508966  0.3906465291976929  1.0000
  H   H1        1.0  0.30891078785828374  0.43962953085554796  0.16755208969116211  1.0000
  Be  Be1       1.0  0.8436387022365396  0.4929168544315513  0.355412769317627  1.0000
  Br  Br1       1.0  0.45784334482096745  0.6488708469796185  0.16111929416656495  1.0000
  F   F1        1.0  0.45883760235591736  0.5571334101725015  0.6546531915664673  1.0000
  Ar  Ar1       1.0  0.4169971737413895  0.8543744301780167  0.4150021851062775  1.0000
  B   B1        1.0  0.6168967921430929  0.31687552593610796  0.4229062840342522  1.0000
  Nb  Nb1       1.0  0.5131534477903552  0.5607340518173308  0.4838708579540253  1.0000
  Mo  Mo1       1.0  0.39004180605697225  0.27665201711704684  0.7044404745101929  1.0000
  Y   Y1        1.0  0.17395928035533448  0.2950879317397983  0.2989134430885315  1.0000
  P   P1        1.0  0.48463564105781987  0.5743432562075182  0.8388807058334351  1.0000
  Mg  Mg1       1.0  0.82430600299166  0.23122587249008902  0.32237144708633425  1.0000
  Co  Co1       1.0  0.4232224373428075  0.5780206842463484  0.5084173560142518  1.0000
  Se  Se1       1.0  0.458761917639998  0.5590520145394461  0.43225161731243134  1.0000
  Si  Si1       1.0  0.1998489556448645  0.14562556982198335  0.34008023142814636  1.0000
