data_image0
_chemical_formula_structural       NbNiNaCZnFMgAlNaSrKScPRuS
_chemical_formula_sum              "Nb1 Ni1 Na2 C1 Zn1 F1 Mg1 Al1 Sr1 K1 Sc1 P1 Ru1 S1"
_cell_length_a       24.324085235595703
_cell_length_b       17.854942321777344
_cell_length_c       20.0
_cell_angle_alpha    90.0
_cell_angle_beta     90.0
_cell_angle_gamma    90.0

_space_group_name_H-M_alt    "P 1"
_space_group_IT_number       1

loop_
  _space_group_symop_operation_xyz
  'x, y, z'

loop_
  _atom_site_type_symbol
  _atom_site_label
  _atom_site_symmetry_multiplicity
  _atom_site_fract_x
  _atom_site_fract_y
  _atom_site_fract_z
  _atom_site_occupancy
  Nb  Nb1       1.0  0.7354967783219186  0.508380243169309  0.6511464834213258  1.0000
  Ni  Ni1       1.0  0.6824151368488836  0.66676290458248  0.6049051284790039  1.0000
  Na  Na1       1.0  0.6360960405952375  0.5334427703294857  0.41714190244674687  1.0000
  C   C1        1.0  0.8617746666503565  0.25623580433434756  0.3472687810659409  1.0000
  Zn  Zn1       1.0  0.10277879781312785  0.582528620737321  0.42902331054210663  1.0000
  F   F1        1.0  0.786596370139842  0.18160297680878765  0.39961220771074296  1.0000
  Mg  Mg1       1.0  0.7965166652081663  0.14001727435314446  0.39588922560215  1.0000
  Al  Al1       1.0  0.7518688161745483  0.8599827256468555  0.5522950649261474  1.0000
  Na  Na2       1.0  0.8972212021868721  0.6895479961718305  0.20098040103912354  1.0000
  Sr  Sr1       1.0  0.7338121370118278  0.8196395812493616  0.278957211971283  1.0000
  K   K1        1.0  0.5674508438364955  0.5528180980142144  0.2658306837081909  1.0000
  Sc  Sc1       1.0  0.7079405772493093  0.552539432463937  0.7990195989608765  1.0000
  P   P1        1.0  0.7134257242277123  0.149746613176697  0.5672237753868103  1.0000
  Ru  Ru1       1.0  0.7038483372234514  0.3525301806114367  0.3474852949380875  1.0000
  S   S1        1.0  0.646804784680666  0.5798593655660448  0.6934172630310059  1.0000
