data_image0
_chemical_formula_structural       HYSRbNCHeAgNaPdFNbRuArGe
_chemical_formula_sum              "H1 Y1 S1 Rb1 N1 C1 He1 Ag1 Na1 Pd1 F1 Nb1 Ru1 Ar1 Ge1"
_cell_length_a       17.789888381958008
_cell_length_b       13.367827415466309
_cell_length_c       20.0
_cell_angle_alpha    90.0
_cell_angle_beta     90.0
_cell_angle_gamma    90.0

_space_group_name_H-M_alt    "P 1"
_space_group_IT_number       1

loop_
  _space_group_symop_operation_xyz
  'x, y, z'

loop_
  _atom_site_type_symbol
  _atom_site_label
  _atom_site_symmetry_multiplicity
  _atom_site_fract_x
  _atom_site_fract_y
  _atom_site_fract_z
  _atom_site_occupancy
  H   H1        1.0  0.8194771376725162  0.18701617418421376  0.45464583188295365  1.0000
  Y   Y1        1.0  0.8594707315569542  0.4341426296210872  0.5507752776145936  1.0000
  S   S1        1.0  0.6343706594546493  0.41604056160927627  0.5818446278572083  1.0000
  Rb  Rb1       1.0  0.40091200034308905  0.4030207335525262  0.5837617874145508  1.0000
  N   N1        1.0  0.6601453035667858  0.4633838830170085  0.4814540512859822  1.0000
  C   C1        1.0  0.7140296125372239  0.7285784570623071  0.38535332679748535  1.0000
  He  He1       1.0  0.1405292684430459  0.47292652792647427  0.25036373138427737  1.0000
  Ag  Ag1       1.0  0.7879169268871907  0.6359380171108561  0.4188397228717804  1.0000
  Na  Na1       1.0  0.6707210800067546  0.8129838258157862  0.7496362686157227  1.0000
  Pd  Pd1       1.0  0.4215924691956975  0.38372297236898456  0.2755314826965332  1.0000
  F   F1        1.0  0.7262984663518111  0.3233527790944158  0.4752052552998066  1.0000
  Nb  Nb1       1.0  0.5276720068832238  0.7692535342158264  0.6787289381027222  1.0000
  Ru  Ru1       1.0  0.4320310602791351  0.5041152214749568  0.3926355838775635  1.0000
  Ar  Ar1       1.0  0.5730837271262809  0.22523086931946312  0.2807377576828003  1.0000
  Ge  Ge1       1.0  0.15894746717200822  0.2922340788801858  0.6240743637084961  1.0000
