data_image0
_chemical_formula_structural       SOCrFeHeCl2SMnHNiBCdRuTi
_chemical_formula_sum              "S2 O1 Cr1 Fe1 He1 Cl2 Mn1 H1 Ni1 B1 Cd1 Ru1 Ti1"
_cell_length_a       14.82133674621582
_cell_length_b       18.003442764282227
_cell_length_c       20.0
_cell_angle_alpha    90.0
_cell_angle_beta     90.0
_cell_angle_gamma    90.0

_space_group_name_H-M_alt    "P 1"
_space_group_IT_number       1

loop_
  _space_group_symop_operation_xyz
  'x, y, z'

loop_
  _atom_site_type_symbol
  _atom_site_label
  _atom_site_symmetry_multiplicity
  _atom_site_fract_x
  _atom_site_fract_y
  _atom_site_fract_z
  _atom_site_occupancy
  S   S1        1.0  0.6177162336380301  0.5159551250668901  0.3259861707687378  1.0000
  O   O1        1.0  0.5487862242909183  0.618428149455413  0.26531195640563965  1.0000
  Cr  Cr1       1.0  0.8128684698665453  0.3900589750660796  0.3260747194290161  1.0000
  Fe  Fe1       1.0  0.7774546164033403  0.5115534884085573  0.25155023336410526  1.0000
  He  He1       1.0  0.4952149186638079  0.2712713657680923  0.2572516083717346  1.0000
  Cl  Cl1       1.0  0.5256631476341294  0.8611376705704392  0.5314792394638062  1.0000
  Cl  Cl2       1.0  0.5366624139116308  0.38797085418787963  0.4027433812618256  1.0000
  S   S2        1.0  0.3049566950585466  0.4265521974864045  0.6246299505233766  1.0000
  Mn  Mn1       1.0  0.16867573577187697  0.5618719335301694  0.33389170169830323  1.0000
  H   H1        1.0  0.3716721972000022  0.6012069724840234  0.20745534896850587  1.0000
  Ni  Ni1       1.0  0.4308747007489336  0.7710174257009941  0.6308291673660279  1.0000
  B   B1        1.0  0.5836024241668875  0.2168976266949776  0.38944121003150944  1.0000
  Cd  Cd1       1.0  0.6968089393176812  0.39759924235529887  0.7925446510314942  1.0000
  Ru  Ru1       1.0  0.831324264228123  0.4392171131887112  0.3604063749313355  1.0000
  Ti  Ti1       1.0  0.6196452328039238  0.13886232942956073  0.5993772625923157  1.0000
