data_image0
_chemical_formula_structural       AgNaNbTcFSeTiNbS2CdClZnNbLi
_chemical_formula_sum              "Ag1 Na1 Nb3 Tc1 F1 Se1 Ti1 S2 Cd1 Cl1 Zn1 Li1"
_cell_length_a       18.4910888671875
_cell_length_b       17.86826515197754
_cell_length_c       20.0
_cell_angle_alpha    90.0
_cell_angle_beta     90.0
_cell_angle_gamma    90.0

_space_group_name_H-M_alt    "P 1"
_space_group_IT_number       1

loop_
  _space_group_symop_operation_xyz
  'x, y, z'

loop_
  _atom_site_type_symbol
  _atom_site_label
  _atom_site_symmetry_multiplicity
  _atom_site_fract_x
  _atom_site_fract_y
  _atom_site_fract_z
  _atom_site_occupancy
  Ag  Ag1       1.0  0.4734922131326785  0.7192199967320008  0.11955457925796509  1.0000
  Na  Na1       1.0  0.2845097211288363  0.5252285040979954  0.8804454207420349  1.0000
  Nb  Nb1       1.0  0.1760125243226784  0.1399128471468706  0.4682956635951996  1.0000
  Tc  Tc1       1.0  0.13520024588804389  0.42135469466542746  0.8278503298759461  1.0000
  F   F1        1.0  0.207784203482826  0.8600871528531294  0.45615447759628297  1.0000
  Se  Se1       1.0  0.6106576799243831  0.29267860906572796  0.2797161936759949  1.0000
  Ti  Ti1       1.0  0.3752804251125569  0.318717339687901  0.2523531198501587  1.0000
  Nb  Nb2       1.0  0.5631948544641502  0.5878677463277839  0.3095504522323609  1.0000
  S   S1        1.0  0.46505866221555464  0.7582398979565478  0.6703462958335877  1.0000
  S   S2        1.0  0.4832807373464309  0.18896287068682  0.4950004577636719  1.0000
  Cd  Cd1       1.0  0.46091999035344833  0.38934449987388076  0.27885738611221317  1.0000
  Cl  Cl1       1.0  0.4797115029145954  0.17228510526048085  0.43724632859230045  1.0000
  Zn  Zn1       1.0  0.8647997541119561  0.23346017835014232  0.5855597138404847  1.0000
  Nb  Nb3       1.0  0.6773177537191624  0.5064497569922537  0.41781626939773564  1.0000
  Li  Li1       1.0  0.3822852120797272  0.6603157366763246  0.7454902052879334  1.0000
