data_image0
_chemical_formula_structural       ZrNaNbBrCuSiInTcKrYRuTcBGaSc
_chemical_formula_sum              "Zr1 Na1 Nb1 Br1 Cu1 Si1 In1 Tc2 Kr1 Y1 Ru1 B1 Ga1 Sc1"
_cell_length_a       19.244768142700195
_cell_length_b       16.595176696777344
_cell_length_c       20.0
_cell_angle_alpha    90.0
_cell_angle_beta     90.0
_cell_angle_gamma    90.0

_space_group_name_H-M_alt    "P 1"
_space_group_IT_number       1

loop_
  _space_group_symop_operation_xyz
  'x, y, z'

loop_
  _atom_site_type_symbol
  _atom_site_label
  _atom_site_symmetry_multiplicity
  _atom_site_fract_x
  _atom_site_fract_y
  _atom_site_fract_z
  _atom_site_occupancy
  Zr  Zr1       1.0  0.8556966398544431  0.23456611534687286  0.20883485674858093  1.0000
  Na  Na1       1.0  0.663823634876446  0.15064614195005155  0.4364687204360962  1.0000
  Nb  Nb1       1.0  0.42053455142475055  0.8493538580499485  0.5181118071079255  1.0000
  Br  Br1       1.0  0.8700945700019257  0.5298426018820198  0.7685960114002228  1.0000
  Cu  Cu1       1.0  0.7370319899644204  0.1737244914231715  0.6795595943927766  1.0000
  Si  Si1       1.0  0.62657108524737  0.5425969621299644  0.33247152119874956  1.0000
  In  In1       1.0  0.5380434844552434  0.464059859393296  0.8198969185352326  1.0000
  Tc  Tc1       1.0  0.7958951847761913  0.6439474413814045  0.3809763997793198  1.0000
  Kr  Kr1       1.0  0.6075503805773771  0.2503373108381705  0.41695335507392883  1.0000
  Y   Y1        1.0  0.7685405756515911  0.24572591388122406  0.23771312832832336  1.0000
  Ru  Ru1       1.0  0.7167878453450172  0.433682725013022  0.18010308146476747  1.0000
  Tc  Tc2       1.0  0.5805225928142685  0.5383987422724182  0.6142840683460236  1.0000
  B   B1        1.0  0.6887988672918326  0.5621238608037651  0.5004444539546967  1.0000
  Ga  Ga1       1.0  0.7765552158808682  0.2682060754254394  0.26700741052627563  1.0000
  Sc  Sc1       1.0  0.12990542999807428  0.397934125367846  0.40870894789695744  1.0000
