data_image0
_chemical_formula_structural       SMgBSBrNaSInCoBeZrAgRbVGe
_chemical_formula_sum              "S3 Mg1 B1 Br1 Na1 In1 Co1 Be1 Zr1 Ag1 Rb1 V1 Ge1"
_cell_length_a       17.553253173828125
_cell_length_b       15.103187561035156
_cell_length_c       20.0
_cell_angle_alpha    90.0
_cell_angle_beta     90.0
_cell_angle_gamma    90.0

_space_group_name_H-M_alt    "P 1"
_space_group_IT_number       1

loop_
  _space_group_symop_operation_xyz
  'x, y, z'

loop_
  _atom_site_type_symbol
  _atom_site_label
  _atom_site_symmetry_multiplicity
  _atom_site_fract_x
  _atom_site_fract_y
  _atom_site_fract_z
  _atom_site_occupancy
  S   S1        1.0  0.8326475870263481  0.21373130624543785  0.5288779973983765  1.0000
  Mg  Mg1       1.0  0.5466412504781071  0.34410690911191877  0.3618977665901184  1.0000
  B   B1        1.0  0.16583863371132768  0.6072413554408581  0.8870478630065919  1.0000
  S   S2        1.0  0.7525697099085512  0.4779252797590933  0.31892650425434116  1.0000
  Br  Br1       1.0  0.405373821303146  0.3145043179384271  0.8171574592590333  1.0000
  Na  Na1       1.0  0.5668772805162687  0.16552795964977862  0.46963516473770145  1.0000
  S   S3        1.0  0.34095120618800906  0.8344720403502214  0.24227800369262698  1.0000
  In  In1       1.0  0.6098560069260325  0.42136249640079715  0.36769567131996156  1.0000
  Co  Co1       1.0  0.4785140528156159  0.7992922633239965  0.11295213699340821  1.0000
  Be  Be1       1.0  0.8026103490072759  0.6669180965078892  0.17922409772872927  1.0000
  Zr  Zr1       1.0  0.5734139342124708  0.49203293949424254  0.661669135093689  1.0000
  Ag  Ag1       1.0  0.5016702710323635  0.6071081533626658  0.14272592067718506  1.0000
  Rb  Rb1       1.0  0.8575762241170233  0.512671068691734  0.23491896390914918  1.0000
  V   V1        1.0  0.14242377588297678  0.2821283016963927  0.36454095840454104  1.0000
  Ge  Ge1       1.0  0.4338271667485244  0.26784477778553045  0.12727961540222169  1.0000
