data_image0
_chemical_formula_structural       HeRuTiNeSeCHMgOCoZrCuSrCoRb
_chemical_formula_sum              "He1 Ru1 Ti1 Ne1 Se1 C1 H1 Mg1 O1 Co2 Zr1 Cu1 Sr1 Rb1"
_cell_length_a       15.633519172668457
_cell_length_b       16.691654205322266
_cell_length_c       20.0
_cell_angle_alpha    90.0
_cell_angle_beta     90.0
_cell_angle_gamma    90.0

_space_group_name_H-M_alt    "P 1"
_space_group_IT_number       1

loop_
  _space_group_symop_operation_xyz
  'x, y, z'

loop_
  _atom_site_type_symbol
  _atom_site_label
  _atom_site_symmetry_multiplicity
  _atom_site_fract_x
  _atom_site_fract_y
  _atom_site_fract_z
  _atom_site_occupancy
  He  He1       1.0  0.584141642803535  0.4251020913164932  0.6240860581398011  1.0000
  Ru  Ru1       1.0  0.33809944199735337  0.4245062253506191  0.3944397926330567  1.0000
  Ti  Ti1       1.0  0.6757572607659654  0.6036552745018589  0.33179893493652346  1.0000
  Ne  Ne1       1.0  0.4718612282500026  0.6765427667115289  0.5938484609127045  1.0000
  Se  Se1       1.0  0.4524385904584616  0.2671568089711691  0.687702488899231  1.0000
  C   C1        1.0  0.25154168567638263  0.21809867756935764  0.4920554719865322  1.0000
  H   H1        1.0  0.30215087196415674  0.7000271404581342  0.264714777469635  1.0000
  Mg  Mg1       1.0  0.5319695764632235  0.1833021134505145  0.48447108417749407  1.0000
  O   O1        1.0  0.28853247310899155  0.8502245297634596  0.7732165932655335  1.0000
  Co  Co1       1.0  0.5984420885817077  0.5340922134524114  0.5838836252689362  1.0000
  Zr  Zr1       1.0  0.8400871887904379  0.6010714674639028  0.22678340673446656  1.0000
  Cu  Cu1       1.0  0.15991281120956208  0.6373657775006359  0.7592367053031922  1.0000
  Sr  Sr1       1.0  0.8163156038031754  0.7442897838750512  0.3676623344421387  1.0000
  Co  Co2       1.0  0.3248881392975863  0.14977547023654036  0.6542587518692017  1.0000
  Rb  Rb1       1.0  0.5984211372897699  0.4058890794715351  0.3660422682762146  1.0000
