data_image0
_chemical_formula_structural       AsAlAsRbBScTiOCdFeSAgRuArBr
_chemical_formula_sum              "As2 Al1 Rb1 B1 Sc1 Ti1 O1 Cd1 Fe1 S1 Ag1 Ru1 Ar1 Br1"
_cell_length_a       19.539226531982422
_cell_length_b       22.813312530517578
_cell_length_c       20.0
_cell_angle_alpha    90.0
_cell_angle_beta     90.0
_cell_angle_gamma    90.0

_space_group_name_H-M_alt    "P 1"
_space_group_IT_number       1

loop_
  _space_group_symop_operation_xyz
  'x, y, z'

loop_
  _atom_site_type_symbol
  _atom_site_label
  _atom_site_symmetry_multiplicity
  _atom_site_fract_x
  _atom_site_fract_y
  _atom_site_fract_z
  _atom_site_occupancy
  As  As1       1.0  0.4361759801807504  0.2527693872522667  0.6210555076599121  1.0000
  Al  Al1       1.0  0.4556606984335108  0.4794441228833051  0.8098486661911011  1.0000
  As  As2       1.0  0.7334106874028594  0.576735107074425  0.30665589570999147  1.0000
  Rb  Rb1       1.0  0.8075946425004944  0.7123583156936867  0.16932342052459717  1.0000
  B   B1        1.0  0.22000022793425575  0.8904148516321642  0.8381577253341675  1.0000
  Sc  Sc1       1.0  0.8720522658617349  0.21128791841244687  0.6034149408340455  1.0000
  Ti  Ti1       1.0  0.43638893032162057  0.30692442934788516  0.16184227466583254  1.0000
  O   O1        1.0  0.6141031136014569  0.3630654026513062  0.38779360651969913  1.0000
  Cd  Cd1       1.0  0.37804364223517306  0.3329169980153203  0.2820452094078064  1.0000
  Fe  Fe1       1.0  0.4387331877742898  0.39296916555204836  0.40737010701559484  1.0000
  S   S1        1.0  0.12794773413826502  0.5329244827203923  0.7064475774765016  1.0000
  Ag  Ag1       1.0  0.6508415917200612  0.10958514836783592  0.25108338594436647  1.0000
  Ru  Ru1       1.0  0.6042984081110624  0.33245540701955384  0.3070397675037384  1.0000
  Ar  Ar1       1.0  0.4583160348966857  0.5587893409825776  0.32725271582603455  1.0000
  Br  Br1       1.0  0.4346062599239256  0.5790303234430361  0.4118630647659302  1.0000
