data_image0
_chemical_formula_structural       Na2LiNiONAlBrNaNbBrCoZrYB
_chemical_formula_sum              "Na3 Li1 Ni1 O1 N1 Al1 Br2 Nb1 Co1 Zr1 Y1 B1"
_cell_length_a       17.33066177368164
_cell_length_b       17.586349487304688
_cell_length_c       20.0
_cell_angle_alpha    90.0
_cell_angle_beta     90.0
_cell_angle_gamma    90.0

_space_group_name_H-M_alt    "P 1"
_space_group_IT_number       1

loop_
  _space_group_symop_operation_xyz
  'x, y, z'

loop_
  _atom_site_type_symbol
  _atom_site_label
  _atom_site_symmetry_multiplicity
  _atom_site_fract_x
  _atom_site_fract_y
  _atom_site_fract_z
  _atom_site_occupancy
  Na  Na1       1.0  0.43903093138011273  0.14215572707843294  0.5110988140106202  1.0000
  Na  Na2       1.0  0.5597517633221509  0.33495373787242777  0.29448387026786804  1.0000
  Li  Li1       1.0  0.75962155570533  0.8578442729215672  0.6215974688529968  1.0000
  Ni  Ni1       1.0  0.35416527491295097  0.6184505029493579  0.5865021824836731  1.0000
  O   O1        1.0  0.5581586707641364  0.4841128579759557  0.30810174345970154  1.0000
  N   N1        1.0  0.45386165157317787  0.22001871045686958  0.1674160361289978  1.0000
  Al  Al1       1.0  0.8557469904002286  0.3499017610521206  0.6110671401023865  1.0000
  Br  Br1       1.0  0.14425300959977144  0.2101794589488946  0.5143728137016297  1.0000
  Na  Na3       1.0  0.19890983312382282  0.5158156354958487  0.2786181926727295  1.0000
  Nb  Nb1       1.0  0.4396217961783608  0.47845793816413157  0.8325839638710022  1.0000
  Br  Br2       1.0  0.5080761725564034  0.6511538160259653  0.6120210528373718  1.0000
  Co  Co1       1.0  0.7806111437733774  0.352919276891064  0.6445093274116517  1.0000
  Zr  Zr1       1.0  0.5605169160395842  0.4458832948114988  0.2940545678138733  1.0000
  Y   Y1        1.0  0.28294500469830375  0.2775985203917178  0.42952879667282107  1.0000
  B   B1        1.0  0.3277044370190677  0.5282787170054549  0.30574266910552983  1.0000
