data_image0
_chemical_formula_structural       BeSrNiHeTcSeRuAgFeCKrTcGeVF
_chemical_formula_sum              "Be1 Sr1 Ni1 He1 Tc2 Se1 Ru1 Ag1 Fe1 C1 Kr1 Ge1 V1 F1"
_cell_length_a       19.596609115600586
_cell_length_b       18.188053131103516
_cell_length_c       20.0
_cell_angle_alpha    90.0
_cell_angle_beta     90.0
_cell_angle_gamma    90.0

_space_group_name_H-M_alt    "P 1"
_space_group_IT_number       1

loop_
  _space_group_symop_operation_xyz
  'x, y, z'

loop_
  _atom_site_type_symbol
  _atom_site_label
  _atom_site_symmetry_multiplicity
  _atom_site_fract_x
  _atom_site_fract_y
  _atom_site_fract_z
  _atom_site_occupancy
  Be  Be1       1.0  0.614682974464261  0.3769430211934464  0.4630350559949875  1.0000
  Sr  Sr1       1.0  0.6294117319999568  0.21408493098308287  0.5085005223751068  1.0000
  Ni  Ni1       1.0  0.43063553219903666  0.7803240857746478  0.9119463324546815  1.0000
  He  He1       1.0  0.491069867806628  0.7244563055054344  0.5042981967329979  1.0000
  Tc  Tc1       1.0  0.7685478195184143  0.4469830883227357  0.5294067442417145  1.0000
  Se  Se1       1.0  0.6937011728777708  0.8625471356401124  0.3848032593727112  1.0000
  Ru  Ru1       1.0  0.24810766914077667  0.5791730365367147  0.9070438742637634  1.0000
  Ag  Ag1       1.0  0.7712883191569774  0.481582251338066  0.8897698283195496  1.0000
  Fe  Fe1       1.0  0.12757308501910647  0.36350872308216486  0.5029932960867882  1.0000
  C   C1        1.0  0.3813511160942187  0.13745286435988757  0.8020670771598817  1.0000
  Kr  Kr1       1.0  0.8724269149808935  0.6127784749183549  0.3602997899055481  1.0000
  Tc  Tc2       1.0  0.27597569125855886  0.7374330390241888  0.7342721819877625  1.0000
  Ge  Ge1       1.0  0.6772331209856626  0.6343738811872508  0.08805366754531861  1.0000
  V   V1        1.0  0.30028963988379903  0.8057544963819419  0.11114109754562379  1.0000
  F   F1        1.0  0.6428897433753669  0.7063289696970714  0.375250256061554  1.0000
