data_image0
_chemical_formula_structural       MgLiGaNbPdCoTiGaCuSiGeArTiGaN
_chemical_formula_sum              "Mg1 Li1 Ga3 Nb1 Pd1 Co1 Ti2 Cu1 Si1 Ge1 Ar1 N1"
_cell_length_a       22.061141967773438
_cell_length_b       19.523239135742188
_cell_length_c       20.0
_cell_angle_alpha    90.0
_cell_angle_beta     90.0
_cell_angle_gamma    90.0

_space_group_name_H-M_alt    "P 1"
_space_group_IT_number       1

loop_
  _space_group_symop_operation_xyz
  'x, y, z'

loop_
  _atom_site_type_symbol
  _atom_site_label
  _atom_site_symmetry_multiplicity
  _atom_site_fract_x
  _atom_site_fract_y
  _atom_site_fract_z
  _atom_site_occupancy
  Mg  Mg1       1.0  0.6624357556790397  0.2903970012114344  0.2892664760351181  1.0000
  Li  Li1       1.0  0.420246991239792  0.5406225270618809  0.5587601184844971  1.0000
  Ga  Ga1       1.0  0.69054787136732  0.39661486522792555  0.43131203651428224  1.0000
  Nb  Nb1       1.0  0.7955506457847875  0.40888234798452494  0.39177964925765996  1.0000
  Pd  Pd1       1.0  0.6005586325018207  0.343554753902968  0.3684743881225586  1.0000
  Co  Co1       1.0  0.11332143917480922  0.7684302460481839  0.11644220352172852  1.0000
  Ti  Ti1       1.0  0.3152069104609285  0.4476913565622619  0.5209753274917602  1.0000
  Ga  Ga2       1.0  0.6227389826922691  0.5841488024873484  0.07529251575469971  1.0000
  Cu  Cu1       1.0  0.8866785608251907  0.46607804836944844  0.28735219985246657  1.0000
  Si  Si1       1.0  0.8283973353574736  0.12805253986009887  0.28384205400943757  1.0000
  Ge  Ge1       1.0  0.5846078934986814  0.8719474601399012  0.9457537412643433  1.0000
  Ar  Ar1       1.0  0.6800267749873945  0.5966759376404385  0.48153786659240727  1.0000
  Ti  Ti2       1.0  0.4957910113629211  0.5145986085601516  0.5004162788391113  1.0000
  Ga  Ga3       1.0  0.45759969379388143  0.7736535798374333  0.05424625873565674  1.0000
  N   N1        1.0  0.7558582645629682  0.34931433974384024  0.3832969427108765  1.0000
