data_image0
_chemical_formula_structural       HeCuSeTcHeTiFeNiBeCrRuKClInN
_chemical_formula_sum              "He2 Cu1 Se1 Tc1 Ti1 Fe1 Ni1 Be1 Cr1 Ru1 K1 Cl1 In1 N1"
_cell_length_a       20.800020217895508
_cell_length_b       15.595474243164062
_cell_length_c       20.0
_cell_angle_alpha    90.0
_cell_angle_beta     90.0
_cell_angle_gamma    90.0

_space_group_name_H-M_alt    "P 1"
_space_group_IT_number       1

loop_
  _space_group_symop_operation_xyz
  'x, y, z'

loop_
  _atom_site_type_symbol
  _atom_site_label
  _atom_site_symmetry_multiplicity
  _atom_site_fract_x
  _atom_site_fract_y
  _atom_site_fract_z
  _atom_site_occupancy
  He  He1       1.0  0.3343030197242582  0.611558875291689  0.7204955101013184  1.0000
  Cu  Cu1       1.0  0.3619636171767948  0.4260620158392568  0.46029181480407716  1.0000
  Se  Se1       1.0  0.4239035403840791  0.2977167318737067  0.13037710189819338  1.0000
  Tc  Tc1       1.0  0.5594375507154797  0.839697083844961  0.8696228981018067  1.0000
  He  He2       1.0  0.2705905649973806  0.3989560895481819  0.27439060211181643  1.0000
  Ti  Ti1       1.0  0.1201921908637906  0.680979377534697  0.5700303077697754  1.0000
  Fe  Fe1       1.0  0.8798078091362095  0.5988111537671283  0.19495595693588258  1.0000
  Ni  Ni1       1.0  0.5413638524406841  0.48472786252586675  0.2869527339935303  1.0000
  Be  Be1       1.0  0.4266382274842986  0.16030291615503905  0.4710792183876038  1.0000
  Cr  Cr1       1.0  0.2544120461420198  0.6391550745304849  0.5493943691253662  1.0000
  Ru  Ru1       1.0  0.4724120886217503  0.5585334745099382  0.3797799408435822  1.0000
  K   K1        1.0  0.6325440264695718  0.5042478875487372  0.1657757639884949  1.0000
  Cl  Cl1       1.0  0.4004430259928267  0.5225142695180836  0.44331969022750856  1.0000
  In  In1       1.0  0.6970506550039748  0.5527006293631032  0.24941434860229494  1.0000
  N   N1        1.0  0.30574013491360685  0.3375943287914663  0.4000044882297516  1.0000
