data_image0
_chemical_formula_structural       HArNaMoKRhCMnCuKRuMoClNi2
_chemical_formula_sum              "H1 Ar1 Na1 Mo2 K2 Rh1 C1 Mn1 Cu1 Ru1 Cl1 Ni2"
_cell_length_a       21.050931930541992
_cell_length_b       15.34086799621582
_cell_length_c       20.0
_cell_angle_alpha    90.0
_cell_angle_beta     90.0
_cell_angle_gamma    90.0

_space_group_name_H-M_alt    "P 1"
_space_group_IT_number       1

loop_
  _space_group_symop_operation_xyz
  'x, y, z'

loop_
  _atom_site_type_symbol
  _atom_site_label
  _atom_site_symmetry_multiplicity
  _atom_site_fract_x
  _atom_site_fract_y
  _atom_site_fract_z
  _atom_site_occupancy
  H   H1        1.0  0.33231631075123463  0.2915049914161735  0.5828387320041657  1.0000
  Ar  Ar1       1.0  0.4276523611885418  0.32895888551930597  0.3045005798339844  1.0000
  Na  Na1       1.0  0.404014743559948  0.1651884521516945  0.5884112834930421  1.0000
  Mo  Mo1       1.0  0.618558300128362  0.83703659855368  0.7202331304550171  1.0000
  K   K1        1.0  0.441649664380396  0.28714261732794083  0.24384496212005616  1.0000
  Rh  Rh1       1.0  0.6474391472861896  0.4053047817129434  0.3322154402732849  1.0000
  C   C1        1.0  0.841136286394429  0.22482990893523935  0.3908371210098267  1.0000
  Mn  Mn1       1.0  0.8812404234724512  0.736531447076619  0.697815763950348  1.0000
  Cu  Cu1       1.0  0.7900673961929556  0.6842732069326335  0.47840907573699953  1.0000
  K   K2        1.0  0.5519787367677317  0.6220657349503601  0.7132450699806214  1.0000
  Ru  Ru1       1.0  0.5555660243671349  0.16296340144632007  0.6856568217277528  1.0000
  Mo  Mo2       1.0  0.7193842757710126  0.5615924968074855  0.7180410385131837  1.0000
  Cl  Cl1       1.0  0.4306689645349433  0.548657264538763  0.7561550378799439  1.0000
  Ni  Ni1       1.0  0.7418407147175831  0.5670280395933972  0.6477314710617066  1.0000
  Ni  Ni2       1.0  0.11875957652754873  0.3606907971625878  0.4418583810329437  1.0000
