data_image0
_chemical_formula_structural       MgCuCrGeYNiCMgSeAgBrPdFeSNe
_chemical_formula_sum              "Mg2 Cu1 Cr1 Ge1 Y1 Ni1 C1 Se1 Ag1 Br1 Pd1 Fe1 S1 Ne1"
_cell_length_a       14.953117370605469
_cell_length_b       18.73322296142578
_cell_length_c       20.0
_cell_angle_alpha    90.0
_cell_angle_beta     90.0
_cell_angle_gamma    90.0

_space_group_name_H-M_alt    "P 1"
_space_group_IT_number       1

loop_
  _space_group_symop_operation_xyz
  'x, y, z'

loop_
  _atom_site_type_symbol
  _atom_site_label
  _atom_site_symmetry_multiplicity
  _atom_site_fract_x
  _atom_site_fract_y
  _atom_site_fract_z
  _atom_site_occupancy
  Mg  Mg1       1.0  0.7604578364524844  0.3761204190781873  0.9289235591888428  1.0000
  Cu  Cu1       1.0  0.6670127851816514  0.16972523021697883  0.530142068862915  1.0000
  Cr  Cr1       1.0  0.21908236912193518  0.48191281943356706  0.27461008429527284  1.0000
  Ge  Ge1       1.0  0.5737823496059818  0.13345274356408587  0.24839494824409486  1.0000
  Y   Y1        1.0  0.4357698804424637  0.8665472564359142  0.5155596256256104  1.0000
  Ni  Ni1       1.0  0.6622902473487642  0.58980865039967  0.7916556835174561  1.0000
  C   C1        1.0  0.5096404903096277  0.1340690507375374  0.34480063067749145  1.0000
  Mg  Mg2       1.0  0.4876734671685541  0.33115332090868255  0.07107644081115723  1.0000
  Se  Se1       1.0  0.4480825815014274  0.6571353823672793  0.08747692108154298  1.0000
  Ag  Ag1       1.0  0.1671892259819841  0.7980653160115191  0.1554249405860901  1.0000
  Br  Br1       1.0  0.4673525923691347  0.5311923337572967  0.8933862209320069  1.0000
  Pd  Pd1       1.0  0.6988181368259662  0.43031927371537276  0.3974178969860077  1.0000
  Fe  Fe1       1.0  0.832810774018016  0.6980600368330876  0.6566659688949585  1.0000
  S   S1        1.0  0.33818912521333616  0.30164966562488166  0.5229545712471009  1.0000
  Ne  Ne1       1.0  0.5930351564592703  0.21051948337562787  0.3241542220115662  1.0000
