data_image0
_chemical_formula_structural       ZrCoYClKGeV2CSrBCdBeORu
_chemical_formula_sum              "Zr1 Co1 Y1 Cl1 K1 Ge1 V2 C1 Sr1 B1 Cd1 Be1 O1 Ru1"
_cell_length_a       23.741750717163086
_cell_length_b       13.753650665283203
_cell_length_c       20.0
_cell_angle_alpha    90.0
_cell_angle_beta     90.0
_cell_angle_gamma    90.0

_space_group_name_H-M_alt    "P 1"
_space_group_IT_number       1

loop_
  _space_group_symop_operation_xyz
  'x, y, z'

loop_
  _atom_site_type_symbol
  _atom_site_label
  _atom_site_symmetry_multiplicity
  _atom_site_fract_x
  _atom_site_fract_y
  _atom_site_fract_z
  _atom_site_occupancy
  Zr  Zr1       1.0  0.5309175516157241  0.8182300612935408  0.18532209992408755  1.0000
  Co  Co1       1.0  0.10529973251689193  0.5206558178661838  0.5795694828033447  1.0000
  Y   Y1        1.0  0.40999842137165526  0.755867683307183  0.9467113733291627  1.0000
  Cl  Cl1       1.0  0.457667102630525  0.6476500109418082  0.46245694160461426  1.0000
  K   K1        1.0  0.679432360595669  0.18176993870645916  0.277475643157959  1.0000
  Ge  Ge1       1.0  0.6296880240754881  0.7516910051402923  0.09759985208511353  1.0000
  V   V1        1.0  0.6349029806350905  0.470444740817826  0.18857302069664003  1.0000
  V   V2        1.0  0.894700267483108  0.2924562893658938  0.053288626670837405  1.0000
  C   C1        1.0  0.6082865560917179  0.2276954395542066  0.1899621069431305  1.0000
  Sr  Sr1       1.0  0.5508125743371267  0.5521366931387236  0.11140836477279664  1.0000
  B   B1        1.0  0.6569807357131122  0.4529821211686683  0.19581253528594972  1.0000
  Cd  Cd1       1.0  0.5108308967693551  0.4792100444412148  0.28278636634349824  1.0000
  Be  Be1       1.0  0.6075536864185341  0.4984995924211129  0.15699101686477662  1.0000
  O   O1        1.0  0.6023379465700583  0.6351072872719729  0.39241465330123904  1.0000
  Ru  Ru1       1.0  0.5132964842781872  0.5027642453605485  0.18613951802253725  1.0000
