data_image0
_chemical_formula_structural       MnNaYAgCdNeLiCPdNeGaGeMnAsH
_chemical_formula_sum              "Mn2 Na1 Y1 Ag1 Cd1 Ne2 Li1 C1 Pd1 Ga1 Ge1 As1 H1"
_cell_length_a       16.13452911376953
_cell_length_b       20.253442764282227
_cell_length_c       20.0
_cell_angle_alpha    90.0
_cell_angle_beta     90.0
_cell_angle_gamma    90.0

_space_group_name_H-M_alt    "P 1"
_space_group_IT_number       1

loop_
  _space_group_symop_operation_xyz
  'x, y, z'

loop_
  _atom_site_type_symbol
  _atom_site_label
  _atom_site_symmetry_multiplicity
  _atom_site_fract_x
  _atom_site_fract_y
  _atom_site_fract_z
  _atom_site_occupancy
  Mn  Mn1       1.0  0.5597405587329208  0.4027871203008446  0.4767088532447815  1.0000
  Na  Na1       1.0  0.4825610227517218  0.5390670196184313  0.4816011905670166  1.0000
  Y   Y1        1.0  0.15494717843657865  0.5308199630517552  0.6212278008460999  1.0000
  Ag  Ag1       1.0  0.5910652191002868  0.4992472668573189  0.8296970009803772  1.0000
  Cd  Cd1       1.0  0.4086767833373132  0.12343581619750256  0.4262554168701172  1.0000
  Ne  Ne1       1.0  0.6195262018361204  0.8065318905806838  0.8905071377754212  1.0000
  Li  Li1       1.0  0.16010757299205355  0.2742235185174896  0.432074648141861  1.0000
  C   C1        1.0  0.8262658201661162  0.24193015544273713  0.5028829336166382  1.0000
  Pd  Pd1       1.0  0.36980253016264064  0.5880103185559502  0.10949286222457887  1.0000
  Ne  Ne2       1.0  0.7048210897842452  0.4838524238091951  0.7901239514350892  1.0000
  Ga  Ga1       1.0  0.21941478389056096  0.5247896575615119  0.2156349301338196  1.0000
  Ge  Ge1       1.0  0.3669493736951983  0.7537389332548048  0.33691554665565493  1.0000
  Mn  Mn2       1.0  0.6727715912167194  0.7647079728782517  0.5783885598182679  1.0000
  As  As1       1.0  0.6269680192076262  0.22063297765993883  0.7323437809944153  1.0000
  H   H1        1.0  0.8450528215634213  0.8765641838024975  0.6419656872749329  1.0000
