data_image0
_chemical_formula_structural       TiGaZnScSrOSrBrMnCrKrHeVRuGa
_chemical_formula_sum              "Ti1 Ga2 Zn1 Sc1 Sr2 O1 Br1 Mn1 Cr1 Kr1 He1 V1 Ru1"
_cell_length_a       13.731348991394043
_cell_length_b       16.878395080566406
_cell_length_c       20.0
_cell_angle_alpha    90.0
_cell_angle_beta     90.0
_cell_angle_gamma    90.0

_space_group_name_H-M_alt    "P 1"
_space_group_IT_number       1

loop_
  _space_group_symop_operation_xyz
  'x, y, z'

loop_
  _atom_site_type_symbol
  _atom_site_label
  _atom_site_symmetry_multiplicity
  _atom_site_fract_x
  _atom_site_fract_y
  _atom_site_fract_z
  _atom_site_occupancy
  Ti  Ti1       1.0  0.18206513737013022  0.4351141113712745  0.5672986686229706  1.0000
  Ga  Ga1       1.0  0.731612948812306  0.3214473171969253  0.5870632588863373  1.0000
  Zn  Zn1       1.0  0.4476623618601643  0.8518816870904969  0.7850841403007508  1.0000
  Sc  Sc1       1.0  0.7352607897161644  0.3894662292041938  0.9160131335258485  1.0000
  Sr  Sr1       1.0  0.7286467630903597  0.35198510109456965  0.6131821662187577  1.0000
  O   O1        1.0  0.350409934622429  0.14811831290950306  0.4715517282485962  1.0000
  Sr  Sr2       1.0  0.27877217274630456  0.20924929569427084  0.7260182023048402  1.0000
  Br  Br1       1.0  0.8176943318139709  0.5743387563650253  0.7037644743919373  1.0000
  Mn  Mn1       1.0  0.19752943008173918  0.36597917989770756  0.8242204308509827  1.0000
  Cr  Cr1       1.0  0.7138746237159044  0.4450389317492999  0.7574975967407227  1.0000
  Kr  Kr1       1.0  0.7176364597836574  0.26766222833518283  0.6202338516712189  1.0000
  He  He1       1.0  0.43918320350028683  0.3260396808333917  0.763822877407074  1.0000
  V   V1        1.0  0.2241893705208016  0.7392312487428156  0.08398686647415161  1.0000
  Ru  Ru1       1.0  0.8179348626298699  0.3941803243027006  0.5697691679000855  1.0000
  Ga  Ga2       1.0  0.4271710740658504  0.659842969203787  0.7804446935653687  1.0000
