data_image0
_chemical_formula_structural       CoScSrCdArHeCoInZnTiFeOAlCrC
_chemical_formula_sum              "Co2 Sc1 Sr1 Cd1 Ar1 He1 In1 Zn1 Ti1 Fe1 O1 Al1 Cr1 C1"
_cell_length_a       15.239628791809082
_cell_length_b       17.140239715576172
_cell_length_c       20.0
_cell_angle_alpha    90.0
_cell_angle_beta     90.0
_cell_angle_gamma    90.0

_space_group_name_H-M_alt    "P 1"
_space_group_IT_number       1

loop_
  _space_group_symop_operation_xyz
  'x, y, z'

loop_
  _atom_site_type_symbol
  _atom_site_label
  _atom_site_symmetry_multiplicity
  _atom_site_fract_x
  _atom_site_fract_y
  _atom_site_fract_z
  _atom_site_occupancy
  Co  Co1       1.0  0.5208166431047886  0.381571010687012  0.17183537483215333  1.0000
  Sc  Sc1       1.0  0.8312352952072506  0.40935170026513334  0.1195112943649292  1.0000
  Sr  Sr1       1.0  0.717832955901063  0.42962205404164194  0.020474600791931155  1.0000
  Cd  Cd1       1.0  0.25681210465591514  0.4897452234048212  0.3817822545766831  1.0000
  Ar  Ar1       1.0  0.6836683996448291  0.5696448486394251  0.35777753889560704  1.0000
  He  He1       1.0  0.8359540055891432  0.14585557522226308  0.6503340005874634  1.0000
  Co  Co2       1.0  0.5023746106751922  0.7207372133202736  0.9795253992080689  1.0000
  In  In1       1.0  0.4930717416788794  0.7537761413830777  0.1732931971549988  1.0000
  Zn  Zn1       1.0  0.7217224570865829  0.46521228777148455  0.394388222694397  1.0000
  Ti  Ti1       1.0  0.6358590066126159  0.5845444104450025  0.5287101626396179  1.0000
  Fe  Fe1       1.0  0.22901056961588453  0.8541444247777369  0.38146632313728335  1.0000
  O   O1        1.0  0.4072908401731199  0.44258011971943617  0.63458411693573  1.0000
  Al  Al1       1.0  0.1640459944108568  0.7966015005749786  0.2742934346199036  1.0000
  Cr  Cr1       1.0  0.721787656143724  0.5643338082720798  0.7372833013534547  1.0000
  C   C1        1.0  0.8010748645377141  0.6269685671338381  0.3746023088693619  1.0000
